MODEL 1
REMARK VINA RESULT:      -7.2      0.000      0.000
REMARK SMILES CCc1cc2c(cc1N1CCC(N3CCOCC3)CC1)C(C)(C)c1[nH]c3cc(C#N)ccc3c1C2=O
REMARK SMILES IDX 36 1 25 2 21 3 8 4 6 5 24 6 7 7 5 8 3 9 34 10 22 11 23 12
REMARK SMILES IDX 4 13 35 14 33 15 26 16 32 17 27 18 31 19 28 20 9 22 12 23
REMARK SMILES IDX 11 24 19 25 10 26 20 27 13 28 16 29 15 30 17 31 14 32 18 33
REMARK SMILES IDX 2 34 1 35 29 36 30 37
REMARK H PARENT 25 21
ROOT
ATOM      1  O   UNL     1      34.786  43.085   6.593  1.00  0.00    -0.289 OA
ATOM      2  N   UNL     1      34.530  47.370   8.264  1.00  0.00    -0.357 N 
ATOM      3  C   UNL     1      36.909  46.437   8.187  1.00  0.00     0.031 C 
ATOM      4  C   UNL     1      39.697  43.862   7.507  1.00  0.00     0.040 A 
ATOM      5  C   UNL     1      37.611  45.128   7.752  1.00  0.00    -0.023 A 
ATOM      6  C   UNL     1      35.406  46.375   7.979  1.00  0.00     0.037 A 
ATOM      7  C   UNL     1      39.011  45.019   7.889  1.00  0.00     0.031 A 
ATOM      8  C   UNL     1      36.901  44.016   7.214  1.00  0.00     0.027 A 
ATOM      9  C   UNL     1      38.992  42.777   6.955  1.00  0.00    -0.024 A 
ATOM     10  C   UNL     1      34.742  45.282   7.463  1.00  0.00     0.052 A 
ATOM     11  C   UNL     1      37.454  47.615   7.351  1.00  0.00     0.023 C 
ATOM     12  C   UNL     1      37.171  46.690   9.687  1.00  0.00     0.023 C 
ATOM     13  C   UNL     1      37.600  42.859   6.829  1.00  0.00     0.018 A 
ATOM     14  C   UNL     1      35.430  44.064   7.059  1.00  0.00     0.195 C 
ATOM     15  C   UNL     1      33.402  45.618   7.429  1.00  0.00     0.011 A 
ATOM     16  C   UNL     1      33.316  46.896   7.925  1.00  0.00     0.048 A 
ATOM     17  C   UNL     1      32.272  44.914   7.010  1.00  0.00     0.012 A 
ATOM     18  C   UNL     1      32.094  47.558   8.035  1.00  0.00     0.046 A 
ATOM     19  C   UNL     1      31.024  45.557   7.110  1.00  0.00     0.020 A 
ATOM     20  C   UNL     1      30.934  46.875   7.619  1.00  0.00     0.054 A 
ATOM     21  H   UNL     1      34.746  48.312   8.663  1.00  0.00     0.166 HD
ENDROOT
BRANCH   4  22
ATOM     22  N   UNL     1      41.120  43.800   7.683  1.00  0.00    -0.371 N 
ATOM     23  C   UNL     1      43.971  43.344   7.976  1.00  0.00     0.060 C 
ATOM     24  C   UNL     1      42.974  43.084   9.138  1.00  0.00     0.040 C 
ATOM     25  C   UNL     1      43.289  43.409   6.590  1.00  0.00     0.040 C 
ATOM     26  C   UNL     1      41.664  43.876   9.037  1.00  0.00     0.118 C 
ATOM     27  C   UNL     1      41.977  44.198   6.566  1.00  0.00     0.118 C 
BRANCH  23  28
ATOM     28  N   UNL     1      44.923  44.477   8.176  1.00  0.00    -0.296 NA
ATOM     29  O   UNL     1      45.894  46.990   9.136  1.00  0.00    -0.379 OA
ATOM     30  C   UNL     1      45.676  46.778   7.754  1.00  0.00     0.175 C 
ATOM     31  C   UNL     1      46.309  45.781   9.743  1.00  0.00     0.175 C 
ATOM     32  C   UNL     1      44.555  45.755   7.537  1.00  0.00     0.113 C 
ATOM     33  C   UNL     1      45.230  44.699   9.604  1.00  0.00     0.113 C 
ENDBRANCH  23  28
ENDBRANCH   4  22
BRANCH   9  34
ATOM     34  C   UNL     1      39.697  41.503   6.555  1.00  0.00     0.034 C 
ATOM     35  C   UNL     1      39.759  40.525   7.723  1.00  0.00     0.009 C 
ENDBRANCH   9  34
BRANCH  20  36
ATOM     36  C   UNL     1      29.651  47.521   7.714  1.00  0.00     0.099 C 
ATOM     37  N   UNL     1      28.619  48.040   7.790  1.00  0.00    -0.192 NA
ENDBRANCH  20  36
TORSDOF 4
ENDMDL
MODEL 2
REMARK VINA RESULT:      -6.8      1.613      2.269
REMARK SMILES CCc1cc2c(cc1N1CCC(N3CCOCC3)CC1)C(C)(C)c1[nH]c3cc(C#N)ccc3c1C2=O
REMARK SMILES IDX 36 1 25 2 21 3 8 4 6 5 24 6 7 7 5 8 3 9 34 10 22 11 23 12
REMARK SMILES IDX 4 13 35 14 33 15 26 16 32 17 27 18 31 19 28 20 9 22 12 23
REMARK SMILES IDX 11 24 19 25 10 26 20 27 13 28 16 29 15 30 17 31 14 32 18 33
REMARK SMILES IDX 2 34 1 35 29 36 30 37
REMARK H PARENT 25 21
ROOT
ATOM      1  O   UNL     1      36.911  42.744   7.215  1.00  0.00    -0.289 OA
ATOM      2  N   UNL     1      35.467  47.098   7.638  1.00  0.00    -0.357 N 
ATOM      3  C   UNL     1      38.010  46.847   7.711  1.00  0.00     0.031 C 
ATOM      4  C   UNL     1      41.405  45.020   7.642  1.00  0.00     0.040 A 
ATOM      5  C   UNL     1      39.050  45.703   7.624  1.00  0.00    -0.023 A 
ATOM      6  C   UNL     1      36.585  46.332   7.600  1.00  0.00     0.037 A 
ATOM      7  C   UNL     1      40.422  46.012   7.719  1.00  0.00     0.031 A 
ATOM      8  C   UNL     1      38.680  44.337   7.451  1.00  0.00     0.027 A 
ATOM      9  C   UNL     1      41.033  43.677   7.448  1.00  0.00    -0.024 A 
ATOM     10  C   UNL     1      36.254  45.003   7.440  1.00  0.00     0.052 A 
ATOM     11  C   UNL     1      38.245  47.843   6.555  1.00  0.00     0.023 C 
ATOM     12  C   UNL     1      38.149  47.570   9.067  1.00  0.00     0.023 C 
ATOM     13  C   UNL     1      39.674  43.348   7.370  1.00  0.00     0.018 A 
ATOM     14  C   UNL     1      37.255  43.948   7.359  1.00  0.00     0.195 C 
ATOM     15  C   UNL     1      34.875  44.948   7.378  1.00  0.00     0.011 A 
ATOM     16  C   UNL     1      34.435  46.243   7.502  1.00  0.00     0.048 A 
ATOM     17  C   UNL     1      33.988  43.881   7.225  1.00  0.00     0.012 A 
ATOM     18  C   UNL     1      33.078  46.560   7.481  1.00  0.00     0.046 A 
ATOM     19  C   UNL     1      32.611  44.172   7.201  1.00  0.00     0.020 A 
ATOM     20  C   UNL     1      32.156  45.506   7.327  1.00  0.00     0.054 A 
ATOM     21  H   UNL     1      35.411  48.136   7.748  1.00  0.00     0.166 HD
ENDROOT
BRANCH   4  22
ATOM     22  N   UNL     1      42.786  45.389   7.761  1.00  0.00    -0.371 N 
ATOM     23  C   UNL     1      45.649  45.806   7.995  1.00  0.00     0.060 C 
ATOM     24  C   UNL     1      44.762  45.484   9.229  1.00  0.00     0.040 C 
ATOM     25  C   UNL     1      44.982  45.436   6.650  1.00  0.00     0.040 C 
ATOM     26  C   UNL     1      43.282  45.848   9.057  1.00  0.00     0.118 C 
ATOM     27  C   UNL     1      43.500  45.810   6.555  1.00  0.00     0.118 C 
BRANCH  23  28
ATOM     28  N   UNL     1      46.241  47.177   7.959  1.00  0.00    -0.296 NA
ATOM     29  O   UNL     1      46.497  49.972   8.505  1.00  0.00    -0.379 OA
ATOM     30  C   UNL     1      46.262  49.510   7.188  1.00  0.00     0.175 C 
ATOM     31  C   UNL     1      47.284  49.029   9.208  1.00  0.00     0.175 C 
ATOM     32  C   UNL     1      45.477  48.194   7.212  1.00  0.00     0.113 C 
ATOM     33  C   UNL     1      46.559  47.680   9.310  1.00  0.00     0.113 C 
ENDBRANCH  23  28
ENDBRANCH   4  22
BRANCH   9  34
ATOM     34  C   UNL     1      42.066  42.576   7.386  1.00  0.00     0.034 C 
ATOM     35  C   UNL     1      42.314  41.984   8.768  1.00  0.00     0.009 C 
ENDBRANCH   9  34
BRANCH  20  36
ATOM     36  C   UNL     1      30.744  45.788   7.300  1.00  0.00     0.099 C 
ATOM     37  N   UNL     1      29.609  46.015   7.277  1.00  0.00    -0.192 NA
ENDBRANCH  20  36
TORSDOF 4
ENDMDL
MODEL 3
REMARK VINA RESULT:      -6.2      1.636      2.155
REMARK SMILES CCc1cc2c(cc1N1CCC(N3CCOCC3)CC1)C(C)(C)c1[nH]c3cc(C#N)ccc3c1C2=O
REMARK SMILES IDX 36 1 25 2 21 3 8 4 6 5 24 6 7 7 5 8 3 9 34 10 22 11 23 12
REMARK SMILES IDX 4 13 35 14 33 15 26 16 32 17 27 18 31 19 28 20 9 22 12 23
REMARK SMILES IDX 11 24 19 25 10 26 20 27 13 28 16 29 15 30 17 31 14 32 18 33
REMARK SMILES IDX 2 34 1 35 29 36 30 37
REMARK H PARENT 25 21
ROOT
ATOM      1  O   UNL     1      35.458  42.778   7.613  1.00  0.00    -0.289 OA
ATOM      2  N   UNL     1      33.673  47.005   8.026  1.00  0.00    -0.357 N 
ATOM      3  C   UNL     1      36.217  46.984   7.775  1.00  0.00     0.031 C 
ATOM      4  C   UNL     1      39.734  45.462   7.342  1.00  0.00     0.040 A 
ATOM      5  C   UNL     1      37.341  45.933   7.603  1.00  0.00    -0.023 A 
ATOM      6  C   UNL     1      34.845  46.339   7.876  1.00  0.00     0.037 A 
ATOM      7  C   UNL     1      38.679  46.367   7.504  1.00  0.00     0.031 A 
ATOM      8  C   UNL     1      37.083  44.532   7.543  1.00  0.00     0.027 A 
ATOM      9  C   UNL     1      39.469  44.083   7.259  1.00  0.00    -0.024 A 
ATOM     10  C   UNL     1      34.624  44.979   7.821  1.00  0.00     0.052 A 
ATOM     11  C   UNL     1      36.207  47.929   6.555  1.00  0.00     0.023 C 
ATOM     12  C   UNL     1      36.458  47.792   9.067  1.00  0.00     0.023 C 
ATOM     13  C   UNL     1      38.149  43.631   7.376  1.00  0.00     0.018 A 
ATOM     14  C   UNL     1      35.702  44.014   7.656  1.00  0.00     0.195 C 
ATOM     15  C   UNL     1      33.259  44.799   7.943  1.00  0.00     0.011 A 
ATOM     16  C   UNL     1      32.718  46.056   8.066  1.00  0.00     0.048 A 
ATOM     17  C   UNL     1      32.465  43.652   7.956  1.00  0.00     0.012 A 
ATOM     18  C   UNL     1      31.345  46.250   8.209  1.00  0.00     0.046 A 
ATOM     19  C   UNL     1      31.075  43.818   8.101  1.00  0.00     0.020 A 
ATOM     20  C   UNL     1      30.515  45.112   8.226  1.00  0.00     0.054 A 
ATOM     21  H   UNL     1      33.533  48.038   8.095  1.00  0.00     0.166 HD
ENDROOT
BRANCH   4  22
ATOM     22  N   UNL     1      41.077  45.958   7.262  1.00  0.00    -0.371 N 
ATOM     23  C   UNL     1      43.766  46.933   6.764  1.00  0.00     0.060 C 
ATOM     24  C   UNL     1      43.437  45.416   6.803  1.00  0.00     0.040 C 
ATOM     25  C   UNL     1      42.519  47.823   6.555  1.00  0.00     0.040 C 
ATOM     26  C   UNL     1      42.180  45.061   7.607  1.00  0.00     0.118 C 
ATOM     27  C   UNL     1      41.295  47.401   7.373  1.00  0.00     0.118 C 
BRANCH  23  28
ATOM     28  N   UNL     1      44.627  47.441   7.874  1.00  0.00    -0.296 NA
ATOM     29  O   UNL     1      47.026  48.095   9.285  1.00  0.00    -0.379 OA
ATOM     30  C   UNL     1      46.152  47.092   9.769  1.00  0.00     0.175 C 
ATOM     31  C   UNL     1      46.279  49.105   8.634  1.00  0.00     0.175 C 
ATOM     32  C   UNL     1      45.405  46.425   8.608  1.00  0.00     0.113 C 
ATOM     33  C   UNL     1      45.517  48.533   7.431  1.00  0.00     0.113 C 
ENDBRANCH  23  28
ENDBRANCH   4  22
BRANCH   9  34
ATOM     34  C   UNL     1      40.585  43.076   7.111  1.00  0.00     0.034 C 
ATOM     35  C   UNL     1      40.028  41.667   6.946  1.00  0.00     0.009 C 
ENDBRANCH   9  34
BRANCH  20  36
ATOM     36  C   UNL     1      29.091  45.266   8.371  1.00  0.00     0.099 C 
ATOM     37  N   UNL     1      27.946  45.390   8.488  1.00  0.00    -0.192 NA
ENDBRANCH  20  36
TORSDOF 4
ENDMDL
MODEL 4
REMARK VINA RESULT:      -5.8      2.184     10.476
REMARK SMILES CCc1cc2c(cc1N1CCC(N3CCOCC3)CC1)C(C)(C)c1[nH]c3cc(C#N)ccc3c1C2=O
REMARK SMILES IDX 36 1 25 2 21 3 8 4 6 5 24 6 7 7 5 8 3 9 34 10 22 11 23 12
REMARK SMILES IDX 4 13 35 14 33 15 26 16 32 17 27 18 31 19 28 20 9 22 12 23
REMARK SMILES IDX 11 24 19 25 10 26 20 27 13 28 16 29 15 30 17 31 14 32 18 33
REMARK SMILES IDX 2 34 1 35 29 36 30 37
REMARK H PARENT 25 21
ROOT
ATOM      1  O   UNL     1      39.587  42.434   7.231  1.00  0.00    -0.289 OA
ATOM      2  N   UNL     1      41.506  46.601   7.645  1.00  0.00    -0.357 N 
ATOM      3  C   UNL     1      38.950  46.635   7.713  1.00  0.00     0.031 C 
ATOM      4  C   UNL     1      35.373  45.197   7.643  1.00  0.00     0.040 A 
ATOM      5  C   UNL     1      37.790  45.614   7.630  1.00  0.00    -0.023 A 
ATOM      6  C   UNL     1      40.309  45.965   7.602  1.00  0.00     0.037 A 
ATOM      7  C   UNL     1      36.460  46.076   7.707  1.00  0.00     0.031 A 
ATOM      8  C   UNL     1      38.006  44.213   7.477  1.00  0.00     0.027 A 
ATOM      9  C   UNL     1      35.595  43.814   7.516  1.00  0.00    -0.024 A 
ATOM     10  C   UNL     1      40.491  44.607   7.447  1.00  0.00     0.052 A 
ATOM     11  C   UNL     1      38.893  47.369   9.069  1.00  0.00     0.023 C 
ATOM     12  C   UNL     1      38.827  47.652   6.558  1.00  0.00     0.023 C 
ATOM     13  C   UNL     1      36.909  43.338   7.418  1.00  0.00     0.018 A 
ATOM     14  C   UNL     1      39.378  43.669   7.375  1.00  0.00     0.195 C 
ATOM     15  C   UNL     1      41.855  44.398   7.392  1.00  0.00     0.011 A 
ATOM     16  C   UNL     1      42.436  45.636   7.515  1.00  0.00     0.048 A 
ATOM     17  C   UNL     1      42.618  43.239   7.244  1.00  0.00     0.012 A 
ATOM     18  C   UNL     1      43.820  45.800   7.502  1.00  0.00     0.046 A 
ATOM     19  C   UNL     1      44.019  43.374   7.226  1.00  0.00     0.020 A 
ATOM     20  C   UNL     1      44.620  44.649   7.355  1.00  0.00     0.054 A 
ATOM     21  H   UNL     1      41.677  47.626   7.757  1.00  0.00     0.166 HD
ENDROOT
BRANCH   4  22
ATOM     22  N   UNL     1      34.040  45.723   7.712  1.00  0.00    -0.371 N 
ATOM     23  C   UNL     1      31.433  46.995   7.600  1.00  0.00     0.060 C 
ATOM     24  C   UNL     1      32.618  47.618   8.388  1.00  0.00     0.040 C 
ATOM     25  C   UNL     1      31.879  45.946   6.556  1.00  0.00     0.040 C 
ATOM     26  C   UNL     1      33.690  46.611   8.820  1.00  0.00     0.118 C 
ATOM     27  C   UNL     1      32.965  44.986   7.047  1.00  0.00     0.118 C 
BRANCH  23  28
ATOM     28  N   UNL     1      30.291  46.501   8.426  1.00  0.00    -0.296 NA
ATOM     29  O   UNL     1      27.953  44.995   9.091  1.00  0.00    -0.379 OA
ATOM     30  C   UNL     1      27.899  46.406   8.983  1.00  0.00     0.175 C 
ATOM     31  C   UNL     1      29.222  44.603   9.578  1.00  0.00     0.175 C 
ATOM     32  C   UNL     1      28.944  46.908   7.980  1.00  0.00     0.113 C 
ATOM     33  C   UNL     1      30.336  45.038   8.617  1.00  0.00     0.113 C 
ENDBRANCH  23  28
ENDBRANCH   4  22
BRANCH   9  34
ATOM     34  C   UNL     1      34.446  42.839   7.418  1.00  0.00     0.034 C 
ATOM     35  C   UNL     1      34.246  42.099   8.736  1.00  0.00     0.009 C 
ENDBRANCH   9  34
BRANCH  20  36
ATOM     36  C   UNL     1      46.054  44.771   7.336  1.00  0.00     0.099 C 
ATOM     37  N   UNL     1      47.207  44.869   7.321  1.00  0.00    -0.192 NA
ENDBRANCH  20  36
TORSDOF 4
ENDMDL
MODEL 5
REMARK VINA RESULT:      -5.4      4.009     10.176
REMARK SMILES CCc1cc2c(cc1N1CCC(N3CCOCC3)CC1)C(C)(C)c1[nH]c3cc(C#N)ccc3c1C2=O
REMARK SMILES IDX 36 1 25 2 21 3 8 4 6 5 24 6 7 7 5 8 3 9 34 10 22 11 23 12
REMARK SMILES IDX 4 13 35 14 33 15 26 16 32 17 27 18 31 19 28 20 9 22 12 23
REMARK SMILES IDX 11 24 19 25 10 26 20 27 13 28 16 29 15 30 17 31 14 32 18 33
REMARK SMILES IDX 2 34 1 35 29 36 30 37
REMARK H PARENT 25 21
ROOT
ATOM      1  O   UNL     1      40.338  47.018   6.581  1.00  0.00    -0.289 OA
ATOM      2  N   UNL     1      38.938  51.324   7.431  1.00  0.00    -0.357 N 
ATOM      3  C   UNL     1      37.068  49.587   7.578  1.00  0.00     0.031 C 
ATOM      4  C   UNL     1      35.444  46.092   7.445  1.00  0.00     0.040 A 
ATOM      5  C   UNL     1      36.912  48.056   7.409  1.00  0.00    -0.023 A 
ATOM      6  C   UNL     1      38.498  50.043   7.348  1.00  0.00     0.037 A 
ATOM      7  C   UNL     1      35.641  47.470   7.580  1.00  0.00     0.031 A 
ATOM      8  C   UNL     1      38.006  47.202   7.084  1.00  0.00     0.027 A 
ATOM      9  C   UNL     1      36.532  45.253   7.147  1.00  0.00    -0.024 A 
ATOM     10  C   UNL     1      39.538  49.196   7.027  1.00  0.00     0.052 A 
ATOM     11  C   UNL     1      36.667  49.988   9.013  1.00  0.00     0.023 C 
ATOM     12  C   UNL     1      36.167  50.314   6.556  1.00  0.00     0.023 C 
ATOM     13  C   UNL     1      37.800  45.818   6.954  1.00  0.00     0.018 A 
ATOM     14  C   UNL     1      39.362  47.759   6.877  1.00  0.00     0.195 C 
ATOM     15  C   UNL     1      40.664  49.988   6.906  1.00  0.00     0.011 A 
ATOM     16  C   UNL     1      40.256  51.274   7.159  1.00  0.00     0.048 A 
ATOM     17  C   UNL     1      41.991  49.684   6.600  1.00  0.00     0.012 A 
ATOM     18  C   UNL     1      41.147  52.345   7.124  1.00  0.00     0.046 A 
ATOM     19  C   UNL     1      42.914  50.746   6.556  1.00  0.00     0.020 A 
ATOM     20  C   UNL     1      42.495  52.072   6.818  1.00  0.00     0.054 A 
ATOM     21  H   UNL     1      38.376  52.175   7.659  1.00  0.00     0.166 HD
ENDROOT
BRANCH   4  22
ATOM     22  N   UNL     1      34.126  45.551   7.615  1.00  0.00    -0.371 N 
ATOM     23  C   UNL     1      31.530  44.256   7.699  1.00  0.00     0.060 C 
ATOM     24  C   UNL     1      31.833  45.425   6.722  1.00  0.00     0.040 C 
ATOM     25  C   UNL     1      32.804  43.576   8.251  1.00  0.00     0.040 C 
ATOM     26  C   UNL     1      32.979  46.341   7.169  1.00  0.00     0.118 C 
ATOM     27  C   UNL     1      33.914  44.548   8.658  1.00  0.00     0.118 C 
BRANCH  23  28
ATOM     28  N   UNL     1      30.547  44.552   8.784  1.00  0.00    -0.296 NA
ATOM     29  O   UNL     1      28.041  44.580  10.161  1.00  0.00    -0.379 OA
ATOM     30  C   UNL     1      28.623  45.782   9.691  1.00  0.00     0.175 C 
ATOM     31  C   UNL     1      29.060  43.676  10.544  1.00  0.00     0.175 C 
ATOM     32  C   UNL     1      29.480  45.514   8.449  1.00  0.00     0.113 C 
ATOM     33  C   UNL     1      29.956  43.323   9.349  1.00  0.00     0.113 C 
ENDBRANCH  23  28
ENDBRANCH   4  22
BRANCH   9  34
ATOM     34  C   UNL     1      36.352  43.764   6.968  1.00  0.00     0.034 C 
ATOM     35  C   UNL     1      37.694  43.076   6.742  1.00  0.00     0.009 C 
ENDBRANCH   9  34
BRANCH  20  36
ATOM     36  C   UNL     1      43.451  53.148   6.771  1.00  0.00     0.099 C 
ATOM     37  N   UNL     1      44.219  54.013   6.733  1.00  0.00    -0.192 NA
ENDBRANCH  20  36
TORSDOF 4
ENDMDL
MODEL 6
REMARK VINA RESULT:      -4.5      2.680      3.404
REMARK SMILES CCc1cc2c(cc1N1CCC(N3CCOCC3)CC1)C(C)(C)c1[nH]c3cc(C#N)ccc3c1C2=O
REMARK SMILES IDX 36 1 25 2 21 3 8 4 6 5 24 6 7 7 5 8 3 9 34 10 22 11 23 12
REMARK SMILES IDX 4 13 35 14 33 15 26 16 32 17 27 18 31 19 28 20 9 22 12 23
REMARK SMILES IDX 11 24 19 25 10 26 20 27 13 28 16 29 15 30 17 31 14 32 18 33
REMARK SMILES IDX 2 34 1 35 29 36 30 37
REMARK H PARENT 25 21
ROOT
ATOM      1  O   UNL     1      35.815  43.373   9.336  1.00  0.00    -0.289 OA
ATOM      2  N   UNL     1      33.247  47.074   8.371  1.00  0.00    -0.357 N 
ATOM      3  C   UNL     1      35.752  47.443   8.022  1.00  0.00     0.031 C 
ATOM      4  C   UNL     1      39.503  46.550   7.967  1.00  0.00     0.040 A 
ATOM      5  C   UNL     1      37.060  46.626   8.165  1.00  0.00    -0.023 A 
ATOM      6  C   UNL     1      34.527  46.628   8.401  1.00  0.00     0.037 A 
ATOM      7  C   UNL     1      38.292  47.241   7.861  1.00  0.00     0.031 A 
ATOM      8  C   UNL     1      37.076  45.268   8.597  1.00  0.00     0.027 A 
ATOM      9  C   UNL     1      39.509  45.202   8.371  1.00  0.00    -0.024 A 
ATOM     10  C   UNL     1      34.571  45.316   8.822  1.00  0.00     0.052 A 
ATOM     11  C   UNL     1      35.586  47.894   6.555  1.00  0.00     0.023 C 
ATOM     12  C   UNL     1      35.808  48.675   8.950  1.00  0.00     0.023 C 
ATOM     13  C   UNL     1      38.297  44.580   8.697  1.00  0.00     0.018 A 
ATOM     14  C   UNL     1      35.817  44.572   8.945  1.00  0.00     0.195 C 
ATOM     15  C   UNL     1      33.264  44.938   9.063  1.00  0.00     0.011 A 
ATOM     16  C   UNL     1      32.491  46.036   8.777  1.00  0.00     0.048 A 
ATOM     17  C   UNL     1      32.704  43.738   9.503  1.00  0.00     0.012 A 
ATOM     18  C   UNL     1      31.103  46.009   8.910  1.00  0.00     0.046 A 
ATOM     19  C   UNL     1      31.306  43.681   9.648  1.00  0.00     0.020 A 
ATOM     20  C   UNL     1      30.506  44.811   9.352  1.00  0.00     0.054 A 
ATOM     21  H   UNL     1      32.910  48.023   8.092  1.00  0.00     0.166 HD
ENDROOT
BRANCH   4  22
ATOM     22  N   UNL     1      40.728  47.229   7.659  1.00  0.00    -0.371 N 
ATOM     23  C   UNL     1      43.148  48.524   6.714  1.00  0.00     0.060 C 
ATOM     24  C   UNL     1      43.085  46.995   6.979  1.00  0.00     0.040 C 
ATOM     25  C   UNL     1      41.754  49.174   6.555  1.00  0.00     0.040 C 
ATOM     26  C   UNL     1      41.995  46.569   7.971  1.00  0.00     0.118 C 
ATOM     27  C   UNL     1      40.711  48.689   7.565  1.00  0.00     0.118 C 
BRANCH  23  28
ATOM     28  N   UNL     1      44.021  49.309   7.637  1.00  0.00    -0.296 NA
ATOM     29  O   UNL     1      46.149  51.040   8.447  1.00  0.00    -0.379 OA
ATOM     30  C   UNL     1      46.137  49.677   8.832  1.00  0.00     0.175 C 
ATOM     31  C   UNL     1      44.822  51.524   8.367  1.00  0.00     0.175 C 
ATOM     32  C   UNL     1      45.409  48.829   7.783  1.00  0.00     0.113 C 
ATOM     33  C   UNL     1      44.020  50.749   7.312  1.00  0.00     0.113 C 
ENDBRANCH  23  28
ENDBRANCH   4  22
BRANCH   9  34
ATOM     34  C   UNL     1      40.800  44.432   8.521  1.00  0.00     0.034 C 
ATOM     35  C   UNL     1      40.813  43.208   7.612  1.00  0.00     0.009 C 
ENDBRANCH   9  34
BRANCH  20  36
ATOM     36  C   UNL     1      29.076  44.737   9.503  1.00  0.00     0.099 C 
ATOM     37  N   UNL     1      27.927  44.678   9.625  1.00  0.00    -0.192 NA
ENDBRANCH  20  36
TORSDOF 4
ENDMDL
