MODEL 1
REMARK VINA RESULT:      -5.8      0.000      0.000
REMARK SMILES COc1cc(N2CCC(N3CCN(C)CC3)CC2)ccc1Nc1ncc(Cl)c(Nc2ccccc2P(C)(C)=O)n1
REMARK SMILES IDX 27 1 40 2 24 3 23 4 28 5 26 6 25 7 29 8 30 10 35 11 31 12
REMARK SMILES IDX 34 13 32 14 33 15 36 16 39 17 37 18 38 19 22 20 21 22 3 23
REMARK SMILES IDX 20 24 4 25 19 26 5 27 2 28 1 29 6 30 7 31 18 32 8 33 17 34
REMARK SMILES IDX 9 35 10 36 11 37 16 38 12 39 15 40 13 41 14 42
REMARK H PARENT 29 9 22 21
ROOT
ATOM      1  Cl  UNL     1      31.396  43.824  10.259  1.00  0.00    -0.079 Cl
ATOM      2  N   UNL     1      34.218  43.729   7.351  1.00  0.00    -0.194 NA
ATOM      3  N   UNL     1      35.034  42.578   9.223  1.00  0.00    -0.220 NA
ATOM      4  C   UNL     1      35.184  42.960   7.929  1.00  0.00     0.229 A 
ATOM      5  C   UNL     1      33.089  44.106   8.008  1.00  0.00     0.154 A 
ATOM      6  C   UNL     1      32.890  43.625   9.330  1.00  0.00     0.102 A 
ATOM      7  C   UNL     1      33.915  42.881   9.923  1.00  0.00     0.139 A 
ENDROOT
BRANCH   5   8
ATOM      8  N   UNL     1      32.154  44.956   7.319  1.00  0.00    -0.338 N 
ATOM      9  H   UNL     1      31.389  44.478   6.774  1.00  0.00     0.168 HD
BRANCH   8  10
ATOM     10  C   UNL     1      32.201  46.390   7.281  1.00  0.00     0.050 A 
ATOM     11  C   UNL     1      31.040  47.200   7.457  1.00  0.00     0.035 A 
ATOM     12  C   UNL     1      33.444  47.003   7.091  1.00  0.00     0.027 A 
ATOM     13  C   UNL     1      31.164  48.596   7.349  1.00  0.00     0.014 A 
ATOM     14  C   UNL     1      33.552  48.391   7.021  1.00  0.00     0.002 A 
ATOM     15  C   UNL     1      32.413  49.185   7.141  1.00  0.00     0.001 A 
BRANCH  11  16
ATOM     16  P   UNL     1      29.401  46.498   7.796  1.00  0.00     0.111 P 
ATOM     17  O   UNL     1      29.275  45.083   7.274  1.00  0.00    -0.319 OA
ATOM     18  C   UNL     1      28.127  47.527   7.008  1.00  0.00     0.087 C 
ATOM     19  C   UNL     1      29.086  46.452   9.587  1.00  0.00     0.087 C 
ENDBRANCH  11  16
ENDBRANCH   8  10
ENDBRANCH   5   8
BRANCH   4  20
ATOM     20  N   UNL     1      36.345  42.598   7.166  1.00  0.00    -0.321 N 
ATOM     21  H   UNL     1      36.279  41.685   6.657  1.00  0.00     0.170 HD
BRANCH  20  22
ATOM     22  C   UNL     1      37.546  43.379   6.996  1.00  0.00     0.084 A 
ATOM     23  C   UNL     1      38.788  42.721   6.847  1.00  0.00     0.144 A 
ATOM     24  C   UNL     1      37.537  44.779   7.082  1.00  0.00     0.032 A 
ATOM     25  C   UNL     1      39.968  43.474   6.695  1.00  0.00     0.074 A 
ATOM     26  C   UNL     1      38.709  45.519   6.939  1.00  0.00     0.028 A 
ATOM     27  C   UNL     1      39.963  44.891   6.727  1.00  0.00     0.040 A 
BRANCH  23  28
ATOM     28  O   UNL     1      38.791  41.310   6.849  1.00  0.00    -0.494 OA
ATOM     29  C   UNL     1      39.890  40.485   7.224  1.00  0.00     0.278 C 
ENDBRANCH  23  28
BRANCH  27  30
ATOM     30  N   UNL     1      41.193  45.676   6.572  1.00  0.00    -0.371 N 
ATOM     31  C   UNL     1      42.528  45.051   6.563  1.00  0.00     0.118 C 
ATOM     32  C   UNL     1      41.273  47.089   6.986  1.00  0.00     0.118 C 
ATOM     33  C   UNL     1      43.010  44.913   8.010  1.00  0.00     0.040 C 
ATOM     34  C   UNL     1      41.672  47.151   8.467  1.00  0.00     0.040 C 
ATOM     35  C   UNL     1      42.891  46.244   8.836  1.00  0.00     0.060 C 
BRANCH  35  36
ATOM     36  N   UNL     1      44.146  47.048   8.919  1.00  0.00    -0.298 NA
ATOM     37  C   UNL     1      44.504  47.813   7.711  1.00  0.00     0.100 C 
ATOM     38  C   UNL     1      45.312  46.254   9.349  1.00  0.00     0.100 C 
ATOM     39  C   UNL     1      45.591  48.826   8.077  1.00  0.00     0.099 C 
ATOM     40  C   UNL     1      46.468  47.191   9.725  1.00  0.00     0.099 C 
ATOM     41  N   UNL     1      46.786  48.163   8.652  1.00  0.00    -0.304 NA
ATOM     42  C   UNL     1      47.726  49.173   9.169  1.00  0.00     0.105 C 
ENDBRANCH  35  36
ENDBRANCH  27  30
ENDBRANCH  20  22
ENDBRANCH   4  20
TORSDOF 8
ENDMDL
MODEL 2
REMARK VINA RESULT:      -5.3      1.496      2.274
REMARK SMILES COc1cc(N2CCC(N3CCN(C)CC3)CC2)ccc1Nc1ncc(Cl)c(Nc2ccccc2P(C)(C)=O)n1
REMARK SMILES IDX 27 1 40 2 24 3 23 4 28 5 26 6 25 7 29 8 30 10 35 11 31 12
REMARK SMILES IDX 34 13 32 14 33 15 36 16 39 17 37 18 38 19 22 20 21 22 3 23
REMARK SMILES IDX 20 24 4 25 19 26 5 27 2 28 1 29 6 30 7 31 18 32 8 33 17 34
REMARK SMILES IDX 9 35 10 36 11 37 16 38 12 39 15 40 13 41 14 42
REMARK H PARENT 29 9 22 21
ROOT
ATOM      1  Cl  UNL     1      31.922  42.861  11.495  1.00  0.00    -0.079 Cl
ATOM      2  N   UNL     1      34.283  43.923   8.376  1.00  0.00    -0.194 NA
ATOM      3  N   UNL     1      34.854  41.747   9.040  1.00  0.00    -0.220 NA
ATOM      4  C   UNL     1      34.999  42.780   8.171  1.00  0.00     0.229 A 
ATOM      5  C   UNL     1      33.401  44.061   9.401  1.00  0.00     0.154 A 
ATOM      6  C   UNL     1      33.180  42.945  10.252  1.00  0.00     0.102 A 
ATOM      7  C   UNL     1      33.961  41.801  10.057  1.00  0.00     0.139 A 
ENDROOT
BRANCH   5   8
ATOM      8  N   UNL     1      32.731  45.326   9.554  1.00  0.00    -0.338 N 
ATOM      9  H   UNL     1      32.941  45.872  10.431  1.00  0.00     0.168 HD
BRANCH   8  10
ATOM     10  C   UNL     1      31.777  45.882   8.637  1.00  0.00     0.050 A 
ATOM     11  C   UNL     1      32.117  46.902   7.700  1.00  0.00     0.035 A 
ATOM     12  C   UNL     1      30.474  45.374   8.655  1.00  0.00     0.027 A 
ATOM     13  C   UNL     1      31.110  47.431   6.876  1.00  0.00     0.014 A 
ATOM     14  C   UNL     1      29.495  45.888   7.806  1.00  0.00     0.002 A 
ATOM     15  C   UNL     1      29.811  46.921   6.924  1.00  0.00     0.001 A 
BRANCH  11  16
ATOM     16  P   UNL     1      33.802  47.561   7.543  1.00  0.00     0.111 P 
ATOM     17  O   UNL     1      34.470  47.728   8.891  1.00  0.00    -0.319 OA
ATOM     18  C   UNL     1      33.745  49.177   6.715  1.00  0.00     0.087 C 
ATOM     19  C   UNL     1      34.836  46.436   6.555  1.00  0.00     0.087 C 
ENDBRANCH  11  16
ENDBRANCH   8  10
ENDBRANCH   5   8
BRANCH   4  20
ATOM     20  N   UNL     1      35.906  42.709   7.060  1.00  0.00    -0.321 N 
ATOM     21  H   UNL     1      35.600  42.093   6.271  1.00  0.00     0.170 HD
BRANCH  20  22
ATOM     22  C   UNL     1      37.146  43.431   6.910  1.00  0.00     0.084 A 
ATOM     23  C   UNL     1      38.373  42.742   7.051  1.00  0.00     0.144 A 
ATOM     24  C   UNL     1      37.178  44.823   6.734  1.00  0.00     0.032 A 
ATOM     25  C   UNL     1      39.589  43.439   6.920  1.00  0.00     0.074 A 
ATOM     26  C   UNL     1      38.384  45.509   6.614  1.00  0.00     0.028 A 
ATOM     27  C   UNL     1      39.631  44.837   6.689  1.00  0.00     0.040 A 
BRANCH  23  28
ATOM     28  O   UNL     1      38.324  41.356   7.314  1.00  0.00    -0.494 OA
ATOM     29  C   UNL     1      39.358  40.422   7.020  1.00  0.00     0.278 C 
ENDBRANCH  23  28
BRANCH  27  30
ATOM     30  N   UNL     1      40.899  45.565   6.556  1.00  0.00    -0.371 N 
ATOM     31  C   UNL     1      42.204  44.883   6.601  1.00  0.00     0.118 C 
ATOM     32  C   UNL     1      41.028  46.982   6.944  1.00  0.00     0.118 C 
ATOM     33  C   UNL     1      42.636  44.755   8.065  1.00  0.00     0.040 C 
ATOM     34  C   UNL     1      41.385  47.058   8.435  1.00  0.00     0.040 C 
ATOM     35  C   UNL     1      42.552  46.108   8.860  1.00  0.00     0.060 C 
BRANCH  35  36
ATOM     36  N   UNL     1      43.837  46.858   8.965  1.00  0.00    -0.298 NA
ATOM     37  C   UNL     1      44.274  47.565   7.748  1.00  0.00     0.100 C 
ATOM     38  C   UNL     1      44.949  46.029   9.466  1.00  0.00     0.100 C 
ATOM     39  C   UNL     1      45.391  48.541   8.123  1.00  0.00     0.099 C 
ATOM     40  C   UNL     1      46.132  46.926   9.855  1.00  0.00     0.099 C 
ATOM     41  N   UNL     1      46.533  47.846   8.765  1.00  0.00    -0.304 NA
ATOM     42  C   UNL     1      47.497  48.831   9.285  1.00  0.00     0.105 C 
ENDBRANCH  35  36
ENDBRANCH  27  30
ENDBRANCH  20  22
ENDBRANCH   4  20
TORSDOF 8
ENDMDL
MODEL 3
REMARK VINA RESULT:      -4.1      1.962      3.037
REMARK SMILES COc1cc(N2CCC(N3CCN(C)CC3)CC2)ccc1Nc1ncc(Cl)c(Nc2ccccc2P(C)(C)=O)n1
REMARK SMILES IDX 27 1 40 2 24 3 23 4 28 5 26 6 25 7 29 8 30 10 35 11 31 12
REMARK SMILES IDX 34 13 32 14 33 15 36 16 39 17 37 18 38 19 22 20 21 22 3 23
REMARK SMILES IDX 20 24 4 25 19 26 5 27 2 28 1 29 6 30 7 31 18 32 8 33 17 34
REMARK SMILES IDX 9 35 10 36 11 37 16 38 12 39 15 40 13 41 14 42
REMARK H PARENT 29 9 22 21
ROOT
ATOM      1  Cl  UNL     1      27.886  44.768   9.164  1.00  0.00    -0.079 Cl
ATOM      2  N   UNL     1      31.857  44.180   8.606  1.00  0.00    -0.194 NA
ATOM      3  N   UNL     1      31.207  43.084  10.575  1.00  0.00    -0.220 NA
ATOM      4  C   UNL     1      32.163  43.357   9.650  1.00  0.00     0.229 A 
ATOM      5  C   UNL     1      30.620  44.716   8.433  1.00  0.00     0.154 A 
ATOM      6  C   UNL     1      29.596  44.351   9.349  1.00  0.00     0.102 A 
ATOM      7  C   UNL     1      29.943  43.549  10.441  1.00  0.00     0.139 A 
ENDROOT
BRANCH   5   8
ATOM      8  N   UNL     1      30.415  45.608   7.322  1.00  0.00    -0.338 N 
ATOM      9  H   UNL     1      29.694  45.321   6.609  1.00  0.00     0.168 HD
BRANCH   8  10
ATOM     10  C   UNL     1      31.135  46.827   7.087  1.00  0.00     0.050 A 
ATOM     11  C   UNL     1      30.503  48.105   7.097  1.00  0.00     0.035 A 
ATOM     12  C   UNL     1      32.514  46.744   6.868  1.00  0.00     0.027 A 
ATOM     13  C   UNL     1      31.271  49.245   6.802  1.00  0.00     0.014 A 
ATOM     14  C   UNL     1      33.266  47.890   6.610  1.00  0.00     0.002 A 
ATOM     15  C   UNL     1      32.644  49.137   6.569  1.00  0.00     0.001 A 
BRANCH  11  16
ATOM     16  P   UNL     1      28.737  48.319   7.459  1.00  0.00     0.111 P 
ATOM     17  O   UNL     1      27.895  47.242   6.811  1.00  0.00    -0.319 OA
ATOM     18  C   UNL     1      28.186  49.939   6.848  1.00  0.00     0.087 C 
ATOM     19  C   UNL     1      28.440  48.242   9.252  1.00  0.00     0.087 C 
ENDBRANCH  11  16
ENDBRANCH   8  10
ENDBRANCH   5   8
BRANCH   4  20
ATOM     20  N   UNL     1      33.492  42.825   9.759  1.00  0.00    -0.321 N 
ATOM     21  H   UNL     1      33.593  42.000  10.396  1.00  0.00     0.170 HD
BRANCH  20  22
ATOM     22  C   UNL     1      34.665  43.276   9.049  1.00  0.00     0.084 A 
ATOM     23  C   UNL     1      35.708  42.361   8.778  1.00  0.00     0.144 A 
ATOM     24  C   UNL     1      34.854  44.625   8.712  1.00  0.00     0.032 A 
ATOM     25  C   UNL     1      36.863  42.794   8.100  1.00  0.00     0.074 A 
ATOM     26  C   UNL     1      36.003  45.049   8.048  1.00  0.00     0.028 A 
ATOM     27  C   UNL     1      37.040  44.145   7.707  1.00  0.00     0.040 A 
BRANCH  23  28
ATOM     28  O   UNL     1      35.540  41.025   9.201  1.00  0.00    -0.494 OA
ATOM     29  C   UNL     1      36.166  40.431  10.334  1.00  0.00     0.278 C 
ENDBRANCH  23  28
BRANCH  27  30
ATOM     30  N   UNL     1      38.245  44.597   7.002  1.00  0.00    -0.371 N 
ATOM     31  C   UNL     1      39.427  43.733   6.833  1.00  0.00     0.118 C 
ATOM     32  C   UNL     1      38.617  46.023   6.930  1.00  0.00     0.118 C 
ATOM     33  C   UNL     1      40.315  43.875   8.073  1.00  0.00     0.040 C 
ATOM     34  C   UNL     1      39.460  46.379   8.162  1.00  0.00     0.040 C 
ATOM     35  C   UNL     1      40.617  45.369   8.455  1.00  0.00     0.060 C 
BRANCH  35  36
ATOM     36  N   UNL     1      41.922  45.895   7.956  1.00  0.00    -0.298 NA
ATOM     37  C   UNL     1      43.076  45.717   8.855  1.00  0.00     0.100 C 
ATOM     38  C   UNL     1      41.852  47.306   7.534  1.00  0.00     0.100 C 
ATOM     39  C   UNL     1      44.359  45.984   8.065  1.00  0.00     0.099 C 
ATOM     40  C   UNL     1      43.113  47.674   6.741  1.00  0.00     0.099 C 
ATOM     41  N   UNL     1      44.361  47.341   7.468  1.00  0.00    -0.304 NA
ATOM     42  C   UNL     1      45.512  47.493   6.561  1.00  0.00     0.105 C 
ENDBRANCH  35  36
ENDBRANCH  27  30
ENDBRANCH  20  22
ENDBRANCH   4  20
TORSDOF 8
ENDMDL
