MODEL 1
REMARK VINA RESULT:      -6.9      0.000      0.000
REMARK SMILES Cc1cc(Nc2ncc(Cl)c(Nc3ccccc3S(=O)(=O)C(C)C)n2)c(OC(C)C)cc1C1CCNCC1
REMARK SMILES IDX 10 1 25 2 7 3 6 4 11 5 9 6 8 7 12 8 13 10 18 11 14 12 17 13
REMARK SMILES IDX 15 14 16 15 19 16 20 17 21 18 22 19 23 20 24 21 5 22 4 24
REMARK SMILES IDX 26 25 3 26 31 27 2 28 32 29 1 30 27 31 28 32 29 33 30 34
REMARK SMILES IDX 33 35 34 36 38 37 35 38 37 39 36 40
REMARK H PARENT 12 9 5 23 36 41
ROOT
ATOM      1  Cl  UNL     1      34.590  45.932  10.912  1.00  0.00    -0.079 Cl
ATOM      2  N   UNL     1      36.263  45.206   7.322  1.00  0.00    -0.194 NA
ATOM      3  N   UNL     1      37.998  45.540   8.869  1.00  0.00    -0.220 NA
ATOM      4  C   UNL     1      37.591  45.281   7.598  1.00  0.00     0.229 A 
ATOM      5  C   UNL     1      35.318  45.394   8.284  1.00  0.00     0.154 A 
ATOM      6  C   UNL     1      35.731  45.680   9.598  1.00  0.00     0.102 A 
ATOM      7  C   UNL     1      37.099  45.743   9.865  1.00  0.00     0.139 A 
ENDROOT
BRANCH   5   8
ATOM      8  N   UNL     1      33.923  45.333   7.939  1.00  0.00    -0.338 N 
ATOM      9  H   UNL     1      33.457  46.184   7.557  1.00  0.00     0.168 HD
BRANCH   8  10
ATOM     10  C   UNL     1      33.159  44.117   8.008  1.00  0.00     0.059 A 
ATOM     11  C   UNL     1      31.743  44.148   8.056  1.00  0.00     0.091 A 
ATOM     12  C   UNL     1      33.828  42.881   8.060  1.00  0.00     0.027 A 
ATOM     13  C   UNL     1      31.036  42.934   8.122  1.00  0.00     0.022 A 
ATOM     14  C   UNL     1      33.108  41.689   8.138  1.00  0.00     0.002 A 
ATOM     15  C   UNL     1      31.715  41.715   8.166  1.00  0.00     0.001 A 
BRANCH  11  16
ATOM     16  S   UNL     1      30.872  45.693   7.953  1.00  0.00     0.182 S 
ATOM     17  O   UNL     1      31.031  46.220   6.555  1.00  0.00    -0.223 OA
ATOM     18  O   UNL     1      31.485  46.669   8.920  1.00  0.00    -0.223 OA
BRANCH  16  19
ATOM     19  C   UNL     1      29.112  45.561   8.319  1.00  0.00     0.107 C 
ATOM     20  C   UNL     1      28.392  46.862   7.950  1.00  0.00     0.025 C 
ATOM     21  C   UNL     1      28.889  45.239   9.801  1.00  0.00     0.025 C 
ENDBRANCH  16  19
ENDBRANCH  11  16
ENDBRANCH   8  10
ENDBRANCH   5   8
BRANCH   4  22
ATOM     22  N   UNL     1      38.545  45.034   6.556  1.00  0.00    -0.321 N 
ATOM     23  H   UNL     1      38.341  45.428   5.610  1.00  0.00     0.170 HD
BRANCH  22  24
ATOM     24  C   UNL     1      39.697  44.190   6.715  1.00  0.00     0.084 A 
ATOM     25  C   UNL     1      40.976  44.761   6.743  1.00  0.00     0.143 A 
ATOM     26  C   UNL     1      39.548  42.808   6.885  1.00  0.00     0.033 A 
ATOM     27  C   UNL     1      42.097  43.933   6.933  1.00  0.00     0.053 A 
ATOM     28  C   UNL     1      40.662  41.974   7.065  1.00  0.00    -0.045 A 
ATOM     29  C   UNL     1      41.964  42.542   7.122  1.00  0.00    -0.038 A 
ATOM     30  C   UNL     1      40.426  40.492   7.219  1.00  0.00     0.045 C 
BRANCH  25  31
ATOM     31  O   UNL     1      41.088  46.150   6.555  1.00  0.00    -0.489 OA
BRANCH  31  32
ATOM     32  C   UNL     1      41.308  47.126   7.575  1.00  0.00     0.167 C 
ATOM     33  C   UNL     1      40.125  48.094   7.583  1.00  0.00     0.052 C 
ATOM     34  C   UNL     1      41.444  46.447   8.942  1.00  0.00     0.052 C 
ENDBRANCH  31  32
ENDBRANCH  25  31
BRANCH  29  35
ATOM     35  C   UNL     1      43.211  41.668   7.302  1.00  0.00     0.022 C 
ATOM     36  C   UNL     1      44.448  42.333   6.664  1.00  0.00     0.023 C 
ATOM     37  C   UNL     1      43.475  41.234   8.773  1.00  0.00     0.023 C 
ATOM     38  C   UNL     1      45.050  43.457   7.536  1.00  0.00     0.081 C 
ATOM     39  C   UNL     1      44.761  41.840   9.352  1.00  0.00     0.081 C 
ATOM     40  N   UNL     1      44.863  43.255   8.985  1.00  0.00    -0.317 NA
ATOM     41  H   UNL     1      45.686  43.666   9.486  1.00  0.00     0.122 HD
ENDBRANCH  29  35
ENDBRANCH  22  24
ENDBRANCH   4  22
TORSDOF 9
ENDMDL
MODEL 2
REMARK VINA RESULT:      -6.9      1.528      2.415
REMARK SMILES Cc1cc(Nc2ncc(Cl)c(Nc3ccccc3S(=O)(=O)C(C)C)n2)c(OC(C)C)cc1C1CCNCC1
REMARK SMILES IDX 10 1 25 2 7 3 6 4 11 5 9 6 8 7 12 8 13 10 18 11 14 12 17 13
REMARK SMILES IDX 15 14 16 15 19 16 20 17 21 18 22 19 23 20 24 21 5 22 4 24
REMARK SMILES IDX 26 25 3 26 31 27 2 28 32 29 1 30 27 31 28 32 29 33 30 34
REMARK SMILES IDX 33 35 34 36 38 37 35 38 37 39 36 40
REMARK H PARENT 12 9 5 23 36 41
ROOT
ATOM      1  Cl  UNL     1      34.600  46.007  11.497  1.00  0.00    -0.079 Cl
ATOM      2  N   UNL     1      35.679  45.004   7.748  1.00  0.00    -0.194 NA
ATOM      3  N   UNL     1      37.641  45.327   9.000  1.00  0.00    -0.220 NA
ATOM      4  C   UNL     1      37.035  45.023   7.820  1.00  0.00     0.229 A 
ATOM      5  C   UNL     1      34.899  45.294   8.826  1.00  0.00     0.154 A 
ATOM      6  C   UNL     1      35.518  45.625  10.045  1.00  0.00     0.102 A 
ATOM      7  C   UNL     1      36.912  45.630  10.103  1.00  0.00     0.139 A 
ENDROOT
BRANCH   5   8
ATOM      8  N   UNL     1      33.467  45.288   8.695  1.00  0.00    -0.338 N 
ATOM      9  H   UNL     1      32.930  44.460   9.032  1.00  0.00     0.168 HD
BRANCH   8  10
ATOM     10  C   UNL     1      32.728  46.419   8.204  1.00  0.00     0.059 A 
ATOM     11  C   UNL     1      31.361  46.299   7.851  1.00  0.00     0.091 A 
ATOM     12  C   UNL     1      33.379  47.655   8.044  1.00  0.00     0.027 A 
ATOM     13  C   UNL     1      30.676  47.432   7.377  1.00  0.00     0.022 A 
ATOM     14  C   UNL     1      32.685  48.764   7.560  1.00  0.00     0.002 A 
ATOM     15  C   UNL     1      31.336  48.654   7.230  1.00  0.00     0.001 A 
BRANCH  11  16
ATOM     16  S   UNL     1      30.504  44.760   8.079  1.00  0.00     0.182 S 
ATOM     17  O   UNL     1      31.451  43.648   7.726  1.00  0.00    -0.223 OA
ATOM     18  O   UNL     1      29.322  44.712   7.150  1.00  0.00    -0.223 OA
BRANCH  16  19
ATOM     19  C   UNL     1      29.915  44.498   9.762  1.00  0.00     0.107 C 
ATOM     20  C   UNL     1      29.968  43.008  10.120  1.00  0.00     0.025 C 
ATOM     21  C   UNL     1      28.485  45.026   9.924  1.00  0.00     0.025 C 
ENDBRANCH  16  19
ENDBRANCH  11  16
ENDBRANCH   8  10
ENDBRANCH   5   8
BRANCH   4  22
ATOM     22  N   UNL     1      37.810  44.672   6.666  1.00  0.00    -0.321 N 
ATOM     23  H   UNL     1      37.395  44.869   5.727  1.00  0.00     0.170 HD
BRANCH  22  24
ATOM     24  C   UNL     1      39.062  43.969   6.730  1.00  0.00     0.084 A 
ATOM     25  C   UNL     1      40.264  44.689   6.703  1.00  0.00     0.143 A 
ATOM     26  C   UNL     1      39.089  42.575   6.864  1.00  0.00     0.033 A 
ATOM     27  C   UNL     1      41.485  43.998   6.802  1.00  0.00     0.053 A 
ATOM     28  C   UNL     1      40.304  41.877   6.952  1.00  0.00    -0.045 A 
ATOM     29  C   UNL     1      41.529  42.597   6.953  1.00  0.00    -0.038 A 
ATOM     30  C   UNL     1      40.255  40.374   7.071  1.00  0.00     0.045 C 
BRANCH  25  31
ATOM     31  O   UNL     1      40.197  46.086   6.555  1.00  0.00    -0.489 OA
BRANCH  31  32
ATOM     32  C   UNL     1      40.616  47.059   7.513  1.00  0.00     0.167 C 
ATOM     33  C   UNL     1      41.879  47.743   6.989  1.00  0.00     0.052 C 
ATOM     34  C   UNL     1      39.510  48.096   7.739  1.00  0.00     0.052 C 
ENDBRANCH  31  32
ENDBRANCH  25  31
BRANCH  29  35
ATOM     35  C   UNL     1      42.881  41.876   7.032  1.00  0.00     0.022 C 
ATOM     36  C   UNL     1      44.031  42.810   6.605  1.00  0.00     0.023 C 
ATOM     37  C   UNL     1      43.158  41.197   8.405  1.00  0.00     0.023 C 
ATOM     38  C   UNL     1      44.444  43.808   7.709  1.00  0.00     0.081 C 
ATOM     39  C   UNL     1      44.330  41.841   9.161  1.00  0.00     0.081 C 
ATOM     40  N   UNL     1      44.244  43.301   9.080  1.00  0.00    -0.317 NA
ATOM     41  H   UNL     1      44.986  43.709   9.696  1.00  0.00     0.122 HD
ENDBRANCH  29  35
ENDBRANCH  22  24
ENDBRANCH   4  22
TORSDOF 9
ENDMDL
MODEL 3
REMARK VINA RESULT:      -6.3      2.156      4.000
REMARK SMILES Cc1cc(Nc2ncc(Cl)c(Nc3ccccc3S(=O)(=O)C(C)C)n2)c(OC(C)C)cc1C1CCNCC1
REMARK SMILES IDX 10 1 25 2 7 3 6 4 11 5 9 6 8 7 12 8 13 10 18 11 14 12 17 13
REMARK SMILES IDX 15 14 16 15 19 16 20 17 21 18 22 19 23 20 24 21 5 22 4 24
REMARK SMILES IDX 26 25 3 26 31 27 2 28 32 29 1 30 27 31 28 32 29 33 30 34
REMARK SMILES IDX 33 35 34 36 38 37 35 38 37 39 36 40
REMARK H PARENT 12 9 5 23 36 41
ROOT
ATOM      1  Cl  UNL     1      32.456  42.790  10.683  1.00  0.00    -0.079 Cl
ATOM      2  N   UNL     1      35.010  44.418   8.028  1.00  0.00    -0.194 NA
ATOM      3  N   UNL     1      35.654  42.184   8.369  1.00  0.00    -0.220 NA
ATOM      4  C   UNL     1      35.851  43.385   7.761  1.00  0.00     0.229 A 
ATOM      5  C   UNL     1      33.972  44.291   8.900  1.00  0.00     0.154 A 
ATOM      6  C   UNL     1      33.771  43.057   9.546  1.00  0.00     0.102 A 
ATOM      7  C   UNL     1      34.639  42.005   9.252  1.00  0.00     0.139 A 
ENDROOT
BRANCH   5   8
ATOM      8  N   UNL     1      33.124  45.420   9.172  1.00  0.00    -0.338 N 
ATOM      9  H   UNL     1      32.535  45.417  10.032  1.00  0.00     0.168 HD
BRANCH   8  10
ATOM     10  C   UNL     1      33.120  46.603   8.354  1.00  0.00     0.059 A 
ATOM     11  C   UNL     1      31.944  47.022   7.684  1.00  0.00     0.091 A 
ATOM     12  C   UNL     1      34.308  47.337   8.194  1.00  0.00     0.027 A 
ATOM     13  C   UNL     1      31.985  48.186   6.896  1.00  0.00     0.022 A 
ATOM     14  C   UNL     1      34.331  48.483   7.398  1.00  0.00     0.002 A 
ATOM     15  C   UNL     1      33.172  48.908   6.753  1.00  0.00     0.001 A 
BRANCH  11  16
ATOM     16  S   UNL     1      30.420  46.134   7.900  1.00  0.00     0.182 S 
ATOM     17  O   UNL     1      30.706  44.924   8.744  1.00  0.00    -0.223 OA
ATOM     18  O   UNL     1      29.916  45.687   6.555  1.00  0.00    -0.223 OA
BRANCH  16  19
ATOM     19  C   UNL     1      29.124  47.098   8.700  1.00  0.00     0.107 C 
ATOM     20  C   UNL     1      28.214  46.184   9.527  1.00  0.00     0.025 C 
ATOM     21  C   UNL     1      28.296  47.862   7.660  1.00  0.00     0.025 C 
ENDBRANCH  16  19
ENDBRANCH  11  16
ENDBRANCH   8  10
ENDBRANCH   5   8
BRANCH   4  22
ATOM     22  N   UNL     1      36.904  43.559   6.804  1.00  0.00    -0.321 N 
ATOM     23  H   UNL     1      36.719  43.260   5.820  1.00  0.00     0.170 HD
BRANCH  22  24
ATOM     24  C   UNL     1      38.224  44.015   7.146  1.00  0.00     0.084 A 
ATOM     25  C   UNL     1      39.317  43.153   6.991  1.00  0.00     0.143 A 
ATOM     26  C   UNL     1      38.431  45.327   7.589  1.00  0.00     0.033 A 
ATOM     27  C   UNL     1      40.610  43.616   7.293  1.00  0.00     0.053 A 
ATOM     28  C   UNL     1      39.716  45.794   7.904  1.00  0.00    -0.045 A 
ATOM     29  C   UNL     1      40.838  44.939   7.726  1.00  0.00    -0.038 A 
ATOM     30  C   UNL     1      39.859  47.213   8.397  1.00  0.00     0.045 C 
BRANCH  25  31
ATOM     31  O   UNL     1      39.070  41.838   6.555  1.00  0.00    -0.489 OA
BRANCH  31  32
ATOM     32  C   UNL     1      39.839  40.680   6.882  1.00  0.00     0.167 C 
ATOM     33  C   UNL     1      41.302  41.097   7.032  1.00  0.00     0.052 C 
ATOM     34  C   UNL     1      39.332  40.054   8.186  1.00  0.00     0.052 C 
ENDBRANCH  31  32
ENDBRANCH  25  31
BRANCH  29  35
ATOM     35  C   UNL     1      42.259  45.401   8.070  1.00  0.00     0.022 C 
ATOM     36  C   UNL     1      42.478  45.425   9.596  1.00  0.00     0.023 C 
ATOM     37  C   UNL     1      43.378  44.611   7.331  1.00  0.00     0.023 C 
ATOM     38  C   UNL     1      42.735  44.024  10.194  1.00  0.00     0.081 C 
ATOM     39  C   UNL     1      44.248  43.778   8.285  1.00  0.00     0.081 C 
ATOM     40  N   UNL     1      43.405  43.092   9.268  1.00  0.00    -0.317 NA
ATOM     41  H   UNL     1      44.012  42.448   9.828  1.00  0.00     0.122 HD
ENDBRANCH  29  35
ENDBRANCH  22  24
ENDBRANCH   4  22
TORSDOF 9
ENDMDL
MODEL 4
REMARK VINA RESULT:      -6.3      2.144      4.137
REMARK SMILES Cc1cc(Nc2ncc(Cl)c(Nc3ccccc3S(=O)(=O)C(C)C)n2)c(OC(C)C)cc1C1CCNCC1
REMARK SMILES IDX 10 1 25 2 7 3 6 4 11 5 9 6 8 7 12 8 13 10 18 11 14 12 17 13
REMARK SMILES IDX 15 14 16 15 19 16 20 17 21 18 22 19 23 20 24 21 5 22 4 24
REMARK SMILES IDX 26 25 3 26 31 27 2 28 32 29 1 30 27 31 28 32 29 33 30 34
REMARK SMILES IDX 33 35 34 36 38 37 35 38 37 39 36 40
REMARK H PARENT 12 9 5 23 36 41
ROOT
ATOM      1  Cl  UNL     1      32.803  43.280  10.551  1.00  0.00    -0.079 Cl
ATOM      2  N   UNL     1      35.683  44.520   8.024  1.00  0.00    -0.194 NA
ATOM      3  N   UNL     1      35.908  42.196   8.287  1.00  0.00    -0.220 NA
ATOM      4  C   UNL     1      36.334  43.363   7.734  1.00  0.00     0.229 A 
ATOM      5  C   UNL     1      34.614  44.549   8.867  1.00  0.00     0.154 A 
ATOM      6  C   UNL     1      34.177  43.349   9.456  1.00  0.00     0.102 A 
ATOM      7  C   UNL     1      34.852  42.169   9.139  1.00  0.00     0.139 A 
ENDROOT
BRANCH   5   8
ATOM      8  N   UNL     1      33.973  45.801   9.166  1.00  0.00    -0.338 N 
ATOM      9  H   UNL     1      33.443  45.900  10.059  1.00  0.00     0.168 HD
BRANCH   8  10
ATOM     10  C   UNL     1      34.109  46.962   8.329  1.00  0.00     0.059 A 
ATOM     11  C   UNL     1      33.065  47.356   7.455  1.00  0.00     0.091 A 
ATOM     12  C   UNL     1      35.305  47.700   8.357  1.00  0.00     0.027 A 
ATOM     13  C   UNL     1      33.239  48.499   6.655  1.00  0.00     0.022 A 
ATOM     14  C   UNL     1      35.463  48.825   7.547  1.00  0.00     0.002 A 
ATOM     15  C   UNL     1      34.432  49.225   6.700  1.00  0.00     0.001 A 
BRANCH  11  16
ATOM     16  S   UNL     1      31.529  46.464   7.427  1.00  0.00     0.182 S 
ATOM     17  O   UNL     1      31.224  46.026   8.832  1.00  0.00    -0.223 OA
ATOM     18  O   UNL     1      31.681  45.248   6.555  1.00  0.00    -0.223 OA
BRANCH  16  19
ATOM     19  C   UNL     1      30.138  47.431   6.814  1.00  0.00     0.107 C 
ATOM     20  C   UNL     1      30.241  48.881   7.300  1.00  0.00     0.025 C 
ATOM     21  C   UNL     1      28.808  46.819   7.270  1.00  0.00     0.025 C 
ENDBRANCH  16  19
ENDBRANCH  11  16
ENDBRANCH   8  10
ENDBRANCH   5   8
BRANCH   4  22
ATOM     22  N   UNL     1      37.430  43.382   6.809  1.00  0.00    -0.321 N 
ATOM     23  H   UNL     1      37.314  42.858   5.912  1.00  0.00     0.170 HD
BRANCH  22  24
ATOM     24  C   UNL     1      38.705  43.980   7.096  1.00  0.00     0.084 A 
ATOM     25  C   UNL     1      39.867  43.201   7.027  1.00  0.00     0.143 A 
ATOM     26  C   UNL     1      38.798  45.344   7.398  1.00  0.00     0.033 A 
ATOM     27  C   UNL     1      41.115  43.801   7.274  1.00  0.00     0.053 A 
ATOM     28  C   UNL     1      40.038  45.948   7.656  1.00  0.00    -0.045 A 
ATOM     29  C   UNL     1      41.229  45.176   7.564  1.00  0.00    -0.038 A 
ATOM     30  C   UNL     1      40.059  47.417   7.998  1.00  0.00     0.045 C 
BRANCH  25  31
ATOM     31  O   UNL     1      39.733  41.832   6.733  1.00  0.00    -0.489 OA
BRANCH  31  32
ATOM     32  C   UNL     1      40.397  40.755   7.397  1.00  0.00     0.167 C 
ATOM     33  C   UNL     1      39.550  39.493   7.239  1.00  0.00     0.052 C 
ATOM     34  C   UNL     1      41.789  40.536   6.794  1.00  0.00     0.052 C 
ENDBRANCH  31  32
ENDBRANCH  25  31
BRANCH  29  35
ATOM     35  C   UNL     1      42.604  45.789   7.852  1.00  0.00     0.022 C 
ATOM     36  C   UNL     1      42.946  45.699   9.354  1.00  0.00     0.023 C 
ATOM     37  C   UNL     1      43.748  45.228   6.958  1.00  0.00     0.023 C 
ATOM     38  C   UNL     1      43.427  44.296   9.783  1.00  0.00     0.081 C 
ATOM     39  C   UNL     1      44.793  44.434   7.755  1.00  0.00     0.081 C 
ATOM     40  N   UNL     1      44.129  43.552   8.719  1.00  0.00    -0.317 NA
ATOM     41  H   UNL     1      44.857  42.945   9.165  1.00  0.00     0.122 HD
ENDBRANCH  29  35
ENDBRANCH  22  24
ENDBRANCH   4  22
TORSDOF 9
ENDMDL
MODEL 5
REMARK VINA RESULT:      -5.1      3.144     10.214
REMARK SMILES Cc1cc(Nc2ncc(Cl)c(Nc3ccccc3S(=O)(=O)C(C)C)n2)c(OC(C)C)cc1C1CCNCC1
REMARK SMILES IDX 10 1 25 2 7 3 6 4 11 5 9 6 8 7 12 8 13 10 18 11 14 12 17 13
REMARK SMILES IDX 15 14 16 15 19 16 20 17 21 18 22 19 23 20 24 21 5 22 4 24
REMARK SMILES IDX 26 25 3 26 31 27 2 28 32 29 1 30 27 31 28 32 29 33 30 34
REMARK SMILES IDX 33 35 34 36 38 37 35 38 37 39 36 40
REMARK H PARENT 12 9 5 23 36 41
ROOT
ATOM      1  Cl  UNL     1      40.786  46.137   9.147  1.00  0.00    -0.079 Cl
ATOM      2  N   UNL     1      38.027  44.402   6.780  1.00  0.00    -0.194 NA
ATOM      3  N   UNL     1      36.893  45.714   8.365  1.00  0.00    -0.220 NA
ATOM      4  C   UNL     1      36.862  44.866   7.302  1.00  0.00     0.229 A 
ATOM      5  C   UNL     1      39.236  44.754   7.299  1.00  0.00     0.154 A 
ATOM      6  C   UNL     1      39.276  45.617   8.409  1.00  0.00     0.102 A 
ATOM      7  C   UNL     1      38.070  46.092   8.925  1.00  0.00     0.139 A 
ENDROOT
BRANCH   5   8
ATOM      8  N   UNL     1      40.443  44.215   6.731  1.00  0.00    -0.338 N 
ATOM      9  H   UNL     1      41.088  44.851   6.214  1.00  0.00     0.168 HD
BRANCH   8  10
ATOM     10  C   UNL     1      40.850  42.850   6.924  1.00  0.00     0.059 A 
ATOM     11  C   UNL     1      42.200  42.526   7.208  1.00  0.00     0.091 A 
ATOM     12  C   UNL     1      39.901  41.821   6.800  1.00  0.00     0.027 A 
ATOM     13  C   UNL     1      42.554  41.177   7.392  1.00  0.00     0.022 A 
ATOM     14  C   UNL     1      40.274  40.488   6.973  1.00  0.00     0.002 A 
ATOM     15  C   UNL     1      41.597  40.167   7.272  1.00  0.00     0.001 A 
BRANCH  11  16
ATOM     16  S   UNL     1      43.412  43.809   7.408  1.00  0.00     0.182 S 
ATOM     17  O   UNL     1      42.949  45.007   6.627  1.00  0.00    -0.223 OA
ATOM     18  O   UNL     1      44.727  43.337   6.851  1.00  0.00    -0.223 OA
BRANCH  16  19
ATOM     19  C   UNL     1      43.667  44.307   9.121  1.00  0.00     0.107 C 
ATOM     20  C   UNL     1      44.981  45.085   9.260  1.00  0.00     0.025 C 
ATOM     21  C   UNL     1      43.681  43.084  10.045  1.00  0.00     0.025 C 
ENDBRANCH  16  19
ENDBRANCH  11  16
ENDBRANCH   8  10
ENDBRANCH   5   8
BRANCH   4  22
ATOM     22  N   UNL     1      35.618  44.496   6.693  1.00  0.00    -0.321 N 
ATOM     23  H   UNL     1      35.656  44.041   5.753  1.00  0.00     0.170 HD
BRANCH  22  24
ATOM     24  C   UNL     1      34.332  44.816   7.249  1.00  0.00     0.084 A 
ATOM     25  C   UNL     1      33.840  46.125   7.152  1.00  0.00     0.143 A 
ATOM     26  C   UNL     1      33.549  43.822   7.848  1.00  0.00     0.033 A 
ATOM     27  C   UNL     1      32.566  46.423   7.666  1.00  0.00     0.053 A 
ATOM     28  C   UNL     1      32.281  44.114   8.374  1.00  0.00    -0.045 A 
ATOM     29  C   UNL     1      31.758  45.430   8.258  1.00  0.00    -0.038 A 
ATOM     30  C   UNL     1      31.504  42.996   9.025  1.00  0.00     0.045 C 
BRANCH  25  31
ATOM     31  O   UNL     1      34.661  47.100   6.555  1.00  0.00    -0.489 OA
BRANCH  31  32
ATOM     32  C   UNL     1      34.992  48.376   7.103  1.00  0.00     0.167 C 
ATOM     33  C   UNL     1      36.438  48.704   6.730  1.00  0.00     0.052 C 
ATOM     34  C   UNL     1      34.049  49.453   6.555  1.00  0.00     0.052 C 
ENDBRANCH  31  32
ENDBRANCH  25  31
BRANCH  29  35
ATOM     35  C   UNL     1      30.385  45.800   8.831  1.00  0.00     0.022 C 
ATOM     36  C   UNL     1      30.253  47.326   9.012  1.00  0.00     0.023 C 
ATOM     37  C   UNL     1      29.185  45.199   8.041  1.00  0.00     0.023 C 
ATOM     38  C   UNL     1      29.956  48.070   7.691  1.00  0.00     0.081 C 
ATOM     39  C   UNL     1      28.328  46.272   7.354  1.00  0.00     0.081 C 
ATOM     40  N   UNL     1      29.187  47.273   6.716  1.00  0.00    -0.317 NA
ATOM     41  H   UNL     1      28.579  47.923   6.163  1.00  0.00     0.122 HD
ENDBRANCH  29  35
ENDBRANCH  22  24
ENDBRANCH   4  22
TORSDOF 9
ENDMDL
MODEL 6
REMARK VINA RESULT:      -4.9      3.634     10.245
REMARK SMILES Cc1cc(Nc2ncc(Cl)c(Nc3ccccc3S(=O)(=O)C(C)C)n2)c(OC(C)C)cc1C1CCNCC1
REMARK SMILES IDX 10 1 25 2 7 3 6 4 11 5 9 6 8 7 12 8 13 10 18 11 14 12 17 13
REMARK SMILES IDX 15 14 16 15 19 16 20 17 21 18 22 19 23 20 24 21 5 22 4 24
REMARK SMILES IDX 26 25 3 26 31 27 2 28 32 29 1 30 27 31 28 32 29 33 30 34
REMARK SMILES IDX 33 35 34 36 38 37 35 38 37 39 36 40
REMARK H PARENT 12 9 5 23 36 41
ROOT
ATOM      1  Cl  UNL     1      41.666  40.412   6.970  1.00  0.00    -0.079 Cl
ATOM      2  N   UNL     1      39.854  44.008   7.032  1.00  0.00    -0.194 NA
ATOM      3  N   UNL     1      38.221  42.388   6.556  1.00  0.00    -0.220 NA
ATOM      4  C   UNL     1      38.563  43.689   6.755  1.00  0.00     0.229 A 
ATOM      5  C   UNL     1      40.827  43.059   7.108  1.00  0.00     0.154 A 
ATOM      6  C   UNL     1      40.485  41.712   6.887  1.00  0.00     0.102 A 
ATOM      7  C   UNL     1      39.152  41.403   6.614  1.00  0.00     0.139 A 
ENDROOT
BRANCH   5   8
ATOM      8  N   UNL     1      42.186  43.447   7.377  1.00  0.00    -0.338 N 
ATOM      9  H   UNL     1      42.914  42.708   7.478  1.00  0.00     0.168 HD
BRANCH   8  10
ATOM     10  C   UNL     1      42.607  44.821   7.421  1.00  0.00     0.059 A 
ATOM     11  C   UNL     1      43.951  45.162   7.715  1.00  0.00     0.091 A 
ATOM     12  C   UNL     1      41.665  45.841   7.198  1.00  0.00     0.027 A 
ATOM     13  C   UNL     1      44.319  46.519   7.745  1.00  0.00     0.022 A 
ATOM     14  C   UNL     1      42.048  47.182   7.245  1.00  0.00     0.002 A 
ATOM     15  C   UNL     1      43.372  47.520   7.515  1.00  0.00     0.001 A 
BRANCH  11  16
ATOM     16  S   UNL     1      45.169  43.894   7.963  1.00  0.00     0.182 S 
ATOM     17  O   UNL     1      46.518  44.554   8.015  1.00  0.00    -0.223 OA
ATOM     18  O   UNL     1      45.132  42.941   6.799  1.00  0.00    -0.223 OA
BRANCH  16  19
ATOM     19  C   UNL     1      44.935  42.948   9.479  1.00  0.00     0.107 C 
ATOM     20  C   UNL     1      44.435  41.536   9.155  1.00  0.00     0.025 C 
ATOM     21  C   UNL     1      43.945  43.654  10.412  1.00  0.00     0.025 C 
ENDBRANCH  16  19
ENDBRANCH  11  16
ENDBRANCH   8  10
ENDBRANCH   5   8
BRANCH   4  22
ATOM     22  N   UNL     1      37.570  44.723   6.726  1.00  0.00    -0.321 N 
ATOM     23  H   UNL     1      37.803  45.603   6.214  1.00  0.00     0.170 HD
BRANCH  22  24
ATOM     24  C   UNL     1      36.330  44.657   7.450  1.00  0.00     0.084 A 
ATOM     25  C   UNL     1      35.901  45.765   8.193  1.00  0.00     0.143 A 
ATOM     26  C   UNL     1      35.527  43.512   7.382  1.00  0.00     0.033 A 
ATOM     27  C   UNL     1      34.670  45.707   8.870  1.00  0.00     0.053 A 
ATOM     28  C   UNL     1      34.302  43.441   8.063  1.00  0.00    -0.045 A 
ATOM     29  C   UNL     1      33.842  44.567   8.799  1.00  0.00    -0.038 A 
ATOM     30  C   UNL     1      33.502  42.167   7.963  1.00  0.00     0.045 C 
BRANCH  25  31
ATOM     31  O   UNL     1      36.740  46.892   8.248  1.00  0.00    -0.489 OA
BRANCH  31  32
ATOM     32  C   UNL     1      36.459  48.183   7.705  1.00  0.00     0.167 C 
ATOM     33  C   UNL     1      37.732  48.724   7.055  1.00  0.00     0.052 C 
ATOM     34  C   UNL     1      35.335  48.091   6.668  1.00  0.00     0.052 C 
ENDBRANCH  31  32
ENDBRANCH  25  31
BRANCH  29  35
ATOM     35  C   UNL     1      32.518  44.531   9.572  1.00  0.00     0.022 C 
ATOM     36  C   UNL     1      31.590  45.682   9.132  1.00  0.00     0.023 C 
ATOM     37  C   UNL     1      31.797  43.152   9.532  1.00  0.00     0.023 C 
ATOM     38  C   UNL     1      30.872  45.404   7.793  1.00  0.00     0.081 C 
ATOM     39  C   UNL     1      30.463  43.199   8.774  1.00  0.00     0.081 C 
ATOM     40  N   UNL     1      30.609  43.975   7.540  1.00  0.00    -0.317 NA
ATOM     41  H   UNL     1      29.720  43.893   6.993  1.00  0.00     0.122 HD
ENDBRANCH  29  35
ENDBRANCH  22  24
ENDBRANCH   4  22
TORSDOF 9
ENDMDL
