MODEL 1
REMARK VINA RESULT:      -7.5      0.000      0.000
REMARK SMILES C[C@@H](Oc1cc(-c2cnn(C3CCNCC3)c2)cnc1N)c1c(Cl)ccc(F)c1Cl
REMARK SMILES IDX 19 1 6 2 5 3 18 4 4 5 20 6 3 7 2 8 1 9 22 10 29 11 27 12
REMARK SMILES IDX 23 13 26 14 25 15 30 16 28 17 24 18 21 19 7 22 17 23 8 24
REMARK SMILES IDX 10 25 9 26 11 27 12 28 16 29 13 30 15 31 14 32
REMARK H PARENT 21 20 21 21 14 33
ROOT
ATOM      1  N   UNL     1      37.211  48.546   7.113  1.00  0.00    -0.235 NA
ATOM      2  C   UNL     1      37.770  46.219   7.266  1.00  0.00     0.007 A 
ATOM      3  C   UNL     1      36.400  45.915   7.247  1.00  0.00     0.061 A 
ATOM      4  C   UNL     1      38.152  47.569   7.200  1.00  0.00     0.122 A 
ATOM      5  C   UNL     1      35.447  46.935   7.189  1.00  0.00     0.162 A 
ATOM      6  C   UNL     1      35.879  48.271   7.103  1.00  0.00     0.166 A 
ENDROOT
BRANCH   5   7
ATOM      7  O   UNL     1      34.088  46.604   7.203  1.00  0.00    -0.482 OA
BRANCH   7   8
ATOM      8  C   UNL     1      33.271  46.756   8.365  1.00  0.00     0.203 C 
ATOM      9  C   UNL     1      34.141  46.840   9.622  1.00  0.00     0.058 C 
BRANCH   8  10
ATOM     10  C   UNL     1      32.278  45.605   8.466  1.00  0.00     0.032 A 
ATOM     11  C   UNL     1      30.902  45.813   8.181  1.00  0.00     0.085 A 
ATOM     12  C   UNL     1      29.996  44.748   8.265  1.00  0.00     0.142 A 
ATOM     13  C   UNL     1      32.694  44.311   8.884  1.00  0.00     0.049 A 
ATOM     14  C   UNL     1      30.429  43.481   8.646  1.00  0.00     0.042 A 
ATOM     15  C   UNL     1      31.768  43.266   8.961  1.00  0.00     0.024 A 
ATOM     16  Cl  UNL     1      30.257  47.392   7.729  1.00  0.00    -0.081 Cl
ATOM     17  F   UNL     1      28.682  44.941   7.982  1.00  0.00    -0.205 F 
ATOM     18  Cl  UNL     1      34.357  43.939   9.342  1.00  0.00    -0.084 Cl
ENDBRANCH   8  10
ENDBRANCH   7   8
ENDBRANCH   5   7
BRANCH   6  19
ATOM     19  N   UNL     1      34.947  49.344   6.949  1.00  0.00    -0.381 N 
ATOM     20  H   UNL     1      34.169  49.500   7.628  1.00  0.00     0.158 HD
ATOM     21  H   UNL     1      34.996  49.959   6.106  1.00  0.00     0.158 HD
ENDBRANCH   6  19
BRANCH   2  22
ATOM     22  C   UNL     1      38.789  45.145   7.358  1.00  0.00     0.021 A 
ATOM     23  C   UNL     1      40.016  45.201   7.991  1.00  0.00     0.117 A 
ATOM     24  C   UNL     1      38.725  43.865   6.828  1.00  0.00     0.143 A 
ATOM     25  N   UNL     1      40.623  44.010   7.842  1.00  0.00    -0.269 N 
ATOM     26  N   UNL     1      39.854  43.196   7.133  1.00  0.00    -0.181 NA
BRANCH  25  27
ATOM     27  C   UNL     1      41.967  43.672   8.315  1.00  0.00     0.110 C 
ATOM     28  C   UNL     1      42.267  44.374   9.650  1.00  0.00     0.042 C 
ATOM     29  C   UNL     1      42.106  42.150   8.467  1.00  0.00     0.042 C 
ATOM     30  C   UNL     1      43.632  43.928  10.189  1.00  0.00     0.083 C 
ATOM     31  C   UNL     1      43.477  41.796   9.057  1.00  0.00     0.083 C 
ATOM     32  N   UNL     1      43.669  42.467  10.350  1.00  0.00    -0.317 NA
ATOM     33  H   UNL     1      44.620  42.211  10.705  1.00  0.00     0.122 HD
ENDBRANCH  25  27
ENDBRANCH   2  22
TORSDOF 6
ENDMDL
MODEL 2
REMARK VINA RESULT:      -7.4      1.029      1.924
REMARK SMILES C[C@@H](Oc1cc(-c2cnn(C3CCNCC3)c2)cnc1N)c1c(Cl)ccc(F)c1Cl
REMARK SMILES IDX 19 1 6 2 5 3 18 4 4 5 20 6 3 7 2 8 1 9 22 10 29 11 27 12
REMARK SMILES IDX 23 13 26 14 25 15 30 16 28 17 24 18 21 19 7 22 17 23 8 24
REMARK SMILES IDX 10 25 9 26 11 27 12 28 16 29 13 30 15 31 14 32
REMARK H PARENT 21 20 21 21 14 33
ROOT
ATOM      1  N   UNL     1      37.442  47.958   7.034  1.00  0.00    -0.235 NA
ATOM      2  C   UNL     1      38.209  45.710   7.359  1.00  0.00     0.007 A 
ATOM      3  C   UNL     1      36.872  45.297   7.470  1.00  0.00     0.061 A 
ATOM      4  C   UNL     1      38.467  47.073   7.140  1.00  0.00     0.122 A 
ATOM      5  C   UNL     1      35.833  46.227   7.390  1.00  0.00     0.162 A 
ATOM      6  C   UNL     1      36.142  47.579   7.149  1.00  0.00     0.166 A 
ENDROOT
BRANCH   5   7
ATOM      7  O   UNL     1      34.512  45.793   7.535  1.00  0.00    -0.482 OA
BRANCH   7   8
ATOM      8  C   UNL     1      33.670  46.232   8.603  1.00  0.00     0.203 C 
ATOM      9  C   UNL     1      34.263  45.820   9.953  1.00  0.00     0.058 C 
BRANCH   8  10
ATOM     10  C   UNL     1      32.264  45.672   8.432  1.00  0.00     0.032 A 
ATOM     11  C   UNL     1      32.029  44.274   8.517  1.00  0.00     0.085 A 
ATOM     12  C   UNL     1      30.732  43.766   8.370  1.00  0.00     0.142 A 
ATOM     13  C   UNL     1      31.163  46.527   8.147  1.00  0.00     0.049 A 
ATOM     14  C   UNL     1      29.663  44.624   8.121  1.00  0.00     0.042 A 
ATOM     15  C   UNL     1      29.878  45.994   8.003  1.00  0.00     0.024 A 
ATOM     16  Cl  UNL     1      33.327  43.111   8.789  1.00  0.00    -0.081 Cl
ATOM     17  F   UNL     1      30.502  42.431   8.460  1.00  0.00    -0.205 F 
ATOM     18  Cl  UNL     1      31.331  48.271   7.940  1.00  0.00    -0.084 Cl
ENDBRANCH   8  10
ENDBRANCH   7   8
ENDBRANCH   5   7
BRANCH   6  19
ATOM     19  N   UNL     1      35.112  48.554   6.966  1.00  0.00    -0.381 N 
ATOM     20  H   UNL     1      35.317  49.578   6.965  1.00  0.00     0.158 HD
ATOM     21  H   UNL     1      34.116  48.251   6.893  1.00  0.00     0.158 HD
ENDBRANCH   6  19
BRANCH   2  22
ATOM     22  C   UNL     1      39.321  44.734   7.473  1.00  0.00     0.021 A 
ATOM     23  C   UNL     1      40.549  44.925   8.077  1.00  0.00     0.117 A 
ATOM     24  C   UNL     1      39.361  43.432   6.997  1.00  0.00     0.143 A 
ATOM     25  N   UNL     1      41.256  43.786   7.965  1.00  0.00    -0.269 N 
ATOM     26  N   UNL     1      40.550  42.879   7.306  1.00  0.00    -0.181 NA
BRANCH  25  27
ATOM     27  C   UNL     1      42.633  43.588   8.423  1.00  0.00     0.110 C 
ATOM     28  C   UNL     1      42.706  43.619   9.958  1.00  0.00     0.042 C 
ATOM     29  C   UNL     1      43.182  42.258   7.886  1.00  0.00     0.042 C 
ATOM     30  C   UNL     1      44.131  43.303  10.429  1.00  0.00     0.083 C 
ATOM     31  C   UNL     1      44.587  41.997   8.444  1.00  0.00     0.083 C 
ATOM     32  N   UNL     1      44.564  41.996   9.914  1.00  0.00    -0.317 NA
ATOM     33  H   UNL     1      45.543  41.831  10.248  1.00  0.00     0.122 HD
ENDBRANCH  25  27
ENDBRANCH   2  22
TORSDOF 6
ENDMDL
MODEL 3
REMARK VINA RESULT:      -7.3      1.525      2.543
REMARK SMILES C[C@@H](Oc1cc(-c2cnn(C3CCNCC3)c2)cnc1N)c1c(Cl)ccc(F)c1Cl
REMARK SMILES IDX 19 1 6 2 5 3 18 4 4 5 20 6 3 7 2 8 1 9 22 10 29 11 27 12
REMARK SMILES IDX 23 13 26 14 25 15 30 16 28 17 24 18 21 19 7 22 17 23 8 24
REMARK SMILES IDX 10 25 9 26 11 27 12 28 16 29 13 30 15 31 14 32
REMARK H PARENT 21 20 21 21 14 33
ROOT
ATOM      1  N   UNL     1      36.491  49.361   7.283  1.00  0.00    -0.235 NA
ATOM      2  C   UNL     1      37.820  47.416   7.731  1.00  0.00     0.007 A 
ATOM      3  C   UNL     1      36.653  46.638   7.678  1.00  0.00     0.061 A 
ATOM      4  C   UNL     1      37.705  48.801   7.529  1.00  0.00     0.122 A 
ATOM      5  C   UNL     1      35.411  47.236   7.456  1.00  0.00     0.162 A 
ATOM      6  C   UNL     1      35.349  48.624   7.238  1.00  0.00     0.166 A 
ENDROOT
BRANCH   5   7
ATOM      7  O   UNL     1      34.260  46.440   7.439  1.00  0.00    -0.482 OA
BRANCH   7   8
ATOM      8  C   UNL     1      33.381  46.335   8.560  1.00  0.00     0.203 C 
ATOM      9  C   UNL     1      34.174  46.405   9.868  1.00  0.00     0.058 C 
BRANCH   8  10
ATOM     10  C   UNL     1      32.575  45.045   8.480  1.00  0.00     0.032 A 
ATOM     11  C   UNL     1      33.232  43.786   8.443  1.00  0.00     0.085 A 
ATOM     12  C   UNL     1      32.485  42.602   8.382  1.00  0.00     0.142 A 
ATOM     13  C   UNL     1      31.156  45.070   8.402  1.00  0.00     0.049 A 
ATOM     14  C   UNL     1      31.093  42.648   8.336  1.00  0.00     0.042 A 
ATOM     15  C   UNL     1      30.434  43.873   8.338  1.00  0.00     0.024 A 
ATOM     16  Cl  UNL     1      34.989  43.634   8.457  1.00  0.00    -0.081 Cl
ATOM     17  F   UNL     1      33.108  41.397   8.357  1.00  0.00    -0.205 F 
ATOM     18  Cl  UNL     1      30.223  46.567   8.360  1.00  0.00    -0.084 Cl
ENDBRANCH   8  10
ENDBRANCH   7   8
ENDBRANCH   5   7
BRANCH   6  19
ATOM     19  N   UNL     1      34.115  49.271   6.914  1.00  0.00    -0.381 N 
ATOM     20  H   UNL     1      33.931  49.660   5.963  1.00  0.00     0.158 HD
ATOM     21  H   UNL     1      33.395  49.419   7.656  1.00  0.00     0.158 HD
ENDBRANCH   6  19
BRANCH   2  22
ATOM     22  C   UNL     1      39.141  46.794   7.997  1.00  0.00     0.021 A 
ATOM     23  C   UNL     1      39.391  45.512   8.447  1.00  0.00     0.117 A 
ATOM     24  C   UNL     1      40.395  47.368   7.852  1.00  0.00     0.143 A 
ATOM     25  N   UNL     1      40.723  45.352   8.545  1.00  0.00    -0.269 N 
ATOM     26  N   UNL     1      41.340  46.471   8.195  1.00  0.00    -0.181 NA
BRANCH  25  27
ATOM     27  C   UNL     1      41.405  44.155   9.042  1.00  0.00     0.110 C 
ATOM     28  C   UNL     1      41.310  43.010   8.020  1.00  0.00     0.042 C 
ATOM     29  C   UNL     1      42.874  44.474   9.354  1.00  0.00     0.042 C 
ATOM     30  C   UNL     1      42.117  41.799   8.502  1.00  0.00     0.083 C 
ATOM     31  C   UNL     1      43.618  43.202   9.780  1.00  0.00     0.083 C 
ATOM     32  N   UNL     1      43.519  42.175   8.733  1.00  0.00    -0.317 NA
ATOM     33  H   UNL     1      44.025  41.323   9.072  1.00  0.00     0.122 HD
ENDBRANCH  25  27
ENDBRANCH   2  22
TORSDOF 6
ENDMDL
MODEL 4
REMARK VINA RESULT:      -7.1      1.870      2.190
REMARK SMILES C[C@@H](Oc1cc(-c2cnn(C3CCNCC3)c2)cnc1N)c1c(Cl)ccc(F)c1Cl
REMARK SMILES IDX 19 1 6 2 5 3 18 4 4 5 20 6 3 7 2 8 1 9 22 10 29 11 27 12
REMARK SMILES IDX 23 13 26 14 25 15 30 16 28 17 24 18 21 19 7 22 17 23 8 24
REMARK SMILES IDX 10 25 9 26 11 27 12 28 16 29 13 30 15 31 14 32
REMARK H PARENT 21 20 21 21 14 33
ROOT
ATOM      1  N   UNL     1      37.037  48.944   7.450  1.00  0.00    -0.235 NA
ATOM      2  C   UNL     1      38.319  46.948   7.800  1.00  0.00     0.007 A 
ATOM      3  C   UNL     1      37.121  46.217   7.845  1.00  0.00     0.061 A 
ATOM      4  C   UNL     1      38.243  48.336   7.601  1.00  0.00     0.122 A 
ATOM      5  C   UNL     1      35.890  46.865   7.719  1.00  0.00     0.162 A 
ATOM      6  C   UNL     1      35.867  48.254   7.501  1.00  0.00     0.166 A 
ENDROOT
BRANCH   5   7
ATOM      7  O   UNL     1      34.711  46.116   7.798  1.00  0.00    -0.482 OA
BRANCH   7   8
ATOM      8  C   UNL     1      33.721  46.344   8.803  1.00  0.00     0.203 C 
ATOM      9  C   UNL     1      34.367  46.374  10.190  1.00  0.00     0.058 C 
BRANCH   8  10
ATOM     10  C   UNL     1      32.638  45.275   8.729  1.00  0.00     0.032 A 
ATOM     11  C   UNL     1      31.305  45.622   8.385  1.00  0.00     0.085 A 
ATOM     12  C   UNL     1      30.316  44.633   8.307  1.00  0.00     0.142 A 
ATOM     13  C   UNL     1      32.925  43.917   9.039  1.00  0.00     0.049 A 
ATOM     14  C   UNL     1      30.625  43.303   8.585  1.00  0.00     0.042 A 
ATOM     15  C   UNL     1      31.919  42.949   8.956  1.00  0.00     0.024 A 
ATOM     16  Cl  UNL     1      30.814  47.284   8.055  1.00  0.00    -0.081 Cl
ATOM     17  F   UNL     1      29.042  44.959   7.968  1.00  0.00    -0.205 F 
ATOM     18  Cl  UNL     1      34.520  43.366   9.555  1.00  0.00    -0.084 Cl
ENDBRANCH   8  10
ENDBRANCH   7   8
ENDBRANCH   5   7
BRANCH   6  19
ATOM     19  N   UNL     1      34.638  48.950   7.274  1.00  0.00    -0.381 N 
ATOM     20  H   UNL     1      34.074  48.802   6.407  1.00  0.00     0.158 HD
ATOM     21  H   UNL     1      34.316  49.672   7.954  1.00  0.00     0.158 HD
ENDBRANCH   6  19
BRANCH   2  22
ATOM     22  C   UNL     1      39.630  46.273   7.963  1.00  0.00     0.021 A 
ATOM     23  C   UNL     1      40.883  46.856   7.947  1.00  0.00     0.117 A 
ATOM     24  C   UNL     1      39.873  44.922   8.161  1.00  0.00     0.143 A 
ATOM     25  N   UNL     1      41.800  45.890   8.139  1.00  0.00    -0.269 N 
ATOM     26  N   UNL     1      41.200  44.715   8.261  1.00  0.00    -0.181 NA
BRANCH  25  27
ATOM     27  C   UNL     1      43.252  46.079   8.133  1.00  0.00     0.110 C 
ATOM     28  C   UNL     1      43.615  47.504   7.682  1.00  0.00     0.042 C 
ATOM     29  C   UNL     1      43.828  45.795   9.528  1.00  0.00     0.042 C 
ATOM     30  C   UNL     1      45.129  47.723   7.784  1.00  0.00     0.083 C 
ATOM     31  C   UNL     1      45.333  46.087   9.554  1.00  0.00     0.083 C 
ATOM     32  N   UNL     1      45.594  47.478   9.157  1.00  0.00    -0.317 NA
ATOM     33  H   UNL     1      46.630  47.626   9.173  1.00  0.00     0.122 HD
ENDBRANCH  25  27
ENDBRANCH   2  22
TORSDOF 6
ENDMDL
MODEL 5
REMARK VINA RESULT:      -6.4      4.824      9.638
REMARK SMILES C[C@@H](Oc1cc(-c2cnn(C3CCNCC3)c2)cnc1N)c1c(Cl)ccc(F)c1Cl
REMARK SMILES IDX 19 1 6 2 5 3 18 4 4 5 20 6 3 7 2 8 1 9 22 10 29 11 27 12
REMARK SMILES IDX 23 13 26 14 25 15 30 16 28 17 24 18 21 19 7 22 17 23 8 24
REMARK SMILES IDX 10 25 9 26 11 27 12 28 16 29 13 30 15 31 14 32
REMARK H PARENT 21 20 21 21 14 33
ROOT
ATOM      1  N   UNL     1      38.472  47.379   7.562  1.00  0.00    -0.235 NA
ATOM      2  C   UNL     1      37.334  45.270   7.648  1.00  0.00     0.007 A 
ATOM      3  C   UNL     1      38.582  44.626   7.623  1.00  0.00     0.061 A 
ATOM      4  C   UNL     1      37.312  46.674   7.612  1.00  0.00     0.122 A 
ATOM      5  C   UNL     1      39.762  45.368   7.539  1.00  0.00     0.162 A 
ATOM      6  C   UNL     1      39.688  46.773   7.527  1.00  0.00     0.166 A 
ENDROOT
BRANCH   5   7
ATOM      7  O   UNL     1      40.989  44.699   7.485  1.00  0.00    -0.482 OA
BRANCH   7   8
ATOM      8  C   UNL     1      41.411  43.783   8.498  1.00  0.00     0.203 C 
ATOM      9  C   UNL     1      41.846  44.540   9.755  1.00  0.00     0.058 C 
BRANCH   8  10
ATOM     10  C   UNL     1      42.539  42.901   7.975  1.00  0.00     0.032 A 
ATOM     11  C   UNL     1      43.797  43.465   7.636  1.00  0.00     0.085 A 
ATOM     12  C   UNL     1      44.833  42.647   7.168  1.00  0.00     0.142 A 
ATOM     13  C   UNL     1      42.348  41.505   7.779  1.00  0.00     0.049 A 
ATOM     14  C   UNL     1      44.635  41.278   7.011  1.00  0.00     0.042 A 
ATOM     15  C   UNL     1      43.399  40.712   7.308  1.00  0.00     0.024 A 
ATOM     16  Cl  UNL     1      44.125  45.194   7.765  1.00  0.00    -0.081 Cl
ATOM     17  F   UNL     1      46.041  43.181   6.853  1.00  0.00    -0.205 F 
ATOM     18  Cl  UNL     1      40.811  40.694   8.087  1.00  0.00    -0.084 Cl
ENDBRANCH   8  10
ENDBRANCH   7   8
ENDBRANCH   5   7
BRANCH   6  19
ATOM     19  N   UNL     1      40.870  47.578   7.535  1.00  0.00    -0.381 N 
ATOM     20  H   UNL     1      41.122  48.195   6.731  1.00  0.00     0.158 HD
ATOM     21  H   UNL     1      41.539  47.511   8.334  1.00  0.00     0.158 HD
ENDBRANCH   6  19
BRANCH   2  22
ATOM     22  C   UNL     1      36.074  44.491   7.706  1.00  0.00     0.021 A 
ATOM     23  C   UNL     1      34.781  44.977   7.658  1.00  0.00     0.117 A 
ATOM     24  C   UNL     1      35.929  43.116   7.823  1.00  0.00     0.143 A 
ATOM     25  N   UNL     1      33.935  43.934   7.732  1.00  0.00    -0.269 N 
ATOM     26  N   UNL     1      34.619  42.804   7.840  1.00  0.00    -0.181 NA
BRANCH  25  27
ATOM     27  C   UNL     1      32.474  44.021   7.771  1.00  0.00     0.110 C 
ATOM     28  C   UNL     1      31.912  43.219   8.957  1.00  0.00     0.042 C 
ATOM     29  C   UNL     1      32.035  45.490   7.862  1.00  0.00     0.042 C 
ATOM     30  C   UNL     1      30.393  43.406   9.052  1.00  0.00     0.083 C 
ATOM     31  C   UNL     1      30.510  45.584   8.004  1.00  0.00     0.083 C 
ATOM     32  N   UNL     1      30.057  44.832   9.183  1.00  0.00    -0.317 NA
ATOM     33  H   UNL     1      29.014  44.910   9.230  1.00  0.00     0.122 HD
ENDBRANCH  25  27
ENDBRANCH   2  22
TORSDOF 6
ENDMDL
MODEL 6
REMARK VINA RESULT:      -6.1      3.227      4.236
REMARK SMILES C[C@@H](Oc1cc(-c2cnn(C3CCNCC3)c2)cnc1N)c1c(Cl)ccc(F)c1Cl
REMARK SMILES IDX 19 1 6 2 5 3 18 4 4 5 20 6 3 7 2 8 1 9 22 10 29 11 27 12
REMARK SMILES IDX 23 13 26 14 25 15 30 16 28 17 24 18 21 19 7 22 17 23 8 24
REMARK SMILES IDX 10 25 9 26 11 27 12 28 16 29 13 30 15 31 14 32
REMARK H PARENT 21 20 21 21 14 33
ROOT
ATOM      1  N   UNL     1      35.873  49.894   6.579  1.00  0.00    -0.235 NA
ATOM      2  C   UNL     1      37.740  48.406   6.805  1.00  0.00     0.007 A 
ATOM      3  C   UNL     1      36.841  47.363   7.083  1.00  0.00     0.061 A 
ATOM      4  C   UNL     1      37.216  49.685   6.557  1.00  0.00     0.122 A 
ATOM      5  C   UNL     1      35.466  47.605   7.133  1.00  0.00     0.162 A 
ATOM      6  C   UNL     1      34.989  48.899   6.856  1.00  0.00     0.166 A 
ENDROOT
BRANCH   5   7
ATOM      7  O   UNL     1      34.597  46.554   7.441  1.00  0.00    -0.482 OA
BRANCH   7   8
ATOM      8  C   UNL     1      33.658  46.623   8.516  1.00  0.00     0.203 C 
ATOM      9  C   UNL     1      34.377  46.926   9.834  1.00  0.00     0.058 C 
BRANCH   8  10
ATOM     10  C   UNL     1      32.869  45.323   8.613  1.00  0.00     0.032 A 
ATOM     11  C   UNL     1      33.531  44.097   8.891  1.00  0.00     0.085 A 
ATOM     12  C   UNL     1      32.799  42.907   8.990  1.00  0.00     0.142 A 
ATOM     13  C   UNL     1      31.465  45.298   8.391  1.00  0.00     0.049 A 
ATOM     14  C   UNL     1      31.419  42.910   8.798  1.00  0.00     0.042 A 
ATOM     15  C   UNL     1      30.758  44.096   8.493  1.00  0.00     0.024 A 
ATOM     16  Cl  UNL     1      35.278  43.994   9.109  1.00  0.00    -0.081 Cl
ATOM     17  F   UNL     1      33.426  41.736   9.266  1.00  0.00    -0.205 F 
ATOM     18  Cl  UNL     1      30.536  46.736   7.961  1.00  0.00    -0.084 Cl
ENDBRANCH   8  10
ENDBRANCH   7   8
ENDBRANCH   5   7
BRANCH   6  19
ATOM     19  N   UNL     1      33.588  49.177   6.803  1.00  0.00    -0.381 N 
ATOM     20  H   UNL     1      32.872  48.431   6.948  1.00  0.00     0.158 HD
ATOM     21  H   UNL     1      33.256  50.135   6.553  1.00  0.00     0.158 HD
ENDBRANCH   6  19
BRANCH   2  22
ATOM     22  C   UNL     1      39.203  48.166   6.780  1.00  0.00     0.021 A 
ATOM     23  C   UNL     1      40.209  49.108   6.678  1.00  0.00     0.117 A 
ATOM     24  C   UNL     1      39.866  46.949   6.850  1.00  0.00     0.143 A 
ATOM     25  N   UNL     1      41.391  48.468   6.700  1.00  0.00    -0.269 N 
ATOM     26  N   UNL     1      41.196  47.161   6.796  1.00  0.00    -0.181 NA
BRANCH  25  27
ATOM     27  C   UNL     1      42.706  49.097   6.557  1.00  0.00     0.110 C 
ATOM     28  C   UNL     1      42.653  50.572   6.990  1.00  0.00     0.042 C 
ATOM     29  C   UNL     1      43.750  48.333   7.384  1.00  0.00     0.042 C 
ATOM     30  C   UNL     1      44.055  51.190   6.939  1.00  0.00     0.083 C 
ATOM     31  C   UNL     1      45.107  49.045   7.318  1.00  0.00     0.083 C 
ATOM     32  N   UNL     1      44.983  50.432   7.791  1.00  0.00    -0.317 NA
ATOM     33  H   UNL     1      45.926  50.881   7.713  1.00  0.00     0.122 HD
ENDBRANCH  25  27
ENDBRANCH   2  22
TORSDOF 6
ENDMDL
MODEL 7
REMARK VINA RESULT:      -6.1      3.594      5.593
REMARK SMILES C[C@@H](Oc1cc(-c2cnn(C3CCNCC3)c2)cnc1N)c1c(Cl)ccc(F)c1Cl
REMARK SMILES IDX 19 1 6 2 5 3 18 4 4 5 20 6 3 7 2 8 1 9 22 10 29 11 27 12
REMARK SMILES IDX 23 13 26 14 25 15 30 16 28 17 24 18 21 19 7 22 17 23 8 24
REMARK SMILES IDX 10 25 9 26 11 27 12 28 16 29 13 30 15 31 14 32
REMARK H PARENT 21 20 21 21 14 33
ROOT
ATOM      1  N   UNL     1      35.020  44.996  10.622  1.00  0.00    -0.235 NA
ATOM      2  C   UNL     1      35.817  46.100   8.648  1.00  0.00     0.007 A 
ATOM      3  C   UNL     1      34.721  45.576   7.944  1.00  0.00     0.061 A 
ATOM      4  C   UNL     1      35.943  45.784  10.010  1.00  0.00     0.122 A 
ATOM      5  C   UNL     1      33.800  44.742   8.583  1.00  0.00     0.162 A 
ATOM      6  C   UNL     1      33.958  44.472   9.954  1.00  0.00     0.166 A 
ENDROOT
BRANCH   5   7
ATOM      7  O   UNL     1      32.735  44.210   7.849  1.00  0.00    -0.482 OA
BRANCH   7   8
ATOM      8  C   UNL     1      31.831  45.026   7.102  1.00  0.00     0.203 C 
ATOM      9  C   UNL     1      32.553  46.260   6.555  1.00  0.00     0.058 C 
BRANCH   8  10
ATOM     10  C   UNL     1      30.644  45.429   7.968  1.00  0.00     0.032 A 
ATOM     11  C   UNL     1      29.988  44.469   8.785  1.00  0.00     0.085 A 
ATOM     12  C   UNL     1      28.905  44.848   9.587  1.00  0.00     0.142 A 
ATOM     13  C   UNL     1      30.141  46.759   7.952  1.00  0.00     0.049 A 
ATOM     14  C   UNL     1      28.447  46.163   9.579  1.00  0.00     0.042 A 
ATOM     15  C   UNL     1      29.056  47.110   8.761  1.00  0.00     0.024 A 
ATOM     16  Cl  UNL     1      30.475  42.774   8.828  1.00  0.00    -0.081 Cl
ATOM     17  F   UNL     1      28.283  43.936  10.377  1.00  0.00    -0.205 F 
ATOM     18  Cl  UNL     1      30.813  48.026   6.925  1.00  0.00    -0.084 Cl
ENDBRANCH   8  10
ENDBRANCH   7   8
ENDBRANCH   5   7
BRANCH   6  19
ATOM     19  N   UNL     1      32.993  43.701  10.674  1.00  0.00    -0.381 N 
ATOM     20  H   UNL     1      32.540  42.857  10.258  1.00  0.00     0.158 HD
ATOM     21  H   UNL     1      32.678  44.014  11.620  1.00  0.00     0.158 HD
ENDBRANCH   6  19
BRANCH   2  22
ATOM     22  C   UNL     1      36.817  46.962   7.972  1.00  0.00     0.021 A 
ATOM     23  C   UNL     1      36.823  48.341   7.893  1.00  0.00     0.117 A 
ATOM     24  C   UNL     1      37.950  46.565   7.278  1.00  0.00     0.143 A 
ATOM     25  N   UNL     1      37.911  48.720   7.198  1.00  0.00    -0.269 N 
ATOM     26  N   UNL     1      38.596  47.652   6.815  1.00  0.00    -0.181 NA
BRANCH  25  27
ATOM     27  C   UNL     1      38.258  50.096   6.839  1.00  0.00     0.110 C 
ATOM     28  C   UNL     1      37.501  51.098   7.727  1.00  0.00     0.042 C 
ATOM     29  C   UNL     1      39.774  50.309   6.964  1.00  0.00     0.042 C 
ATOM     30  C   UNL     1      37.953  52.530   7.416  1.00  0.00     0.083 C 
ATOM     31  C   UNL     1      40.132  51.774   6.686  1.00  0.00     0.083 C 
ATOM     32  N   UNL     1      39.405  52.663   7.603  1.00  0.00    -0.317 NA
ATOM     33  H   UNL     1      39.667  53.649   7.367  1.00  0.00     0.122 HD
ENDBRANCH  25  27
ENDBRANCH   2  22
TORSDOF 6
ENDMDL
MODEL 8
REMARK VINA RESULT:      -6.0      3.723      4.849
REMARK SMILES C[C@@H](Oc1cc(-c2cnn(C3CCNCC3)c2)cnc1N)c1c(Cl)ccc(F)c1Cl
REMARK SMILES IDX 19 1 6 2 5 3 18 4 4 5 20 6 3 7 2 8 1 9 22 10 29 11 27 12
REMARK SMILES IDX 23 13 26 14 25 15 30 16 28 17 24 18 21 19 7 22 17 23 8 24
REMARK SMILES IDX 10 25 9 26 11 27 12 28 16 29 13 30 15 31 14 32
REMARK H PARENT 21 20 21 21 14 33
ROOT
ATOM      1  N   UNL     1      35.050  49.990   6.559  1.00  0.00    -0.235 NA
ATOM      2  C   UNL     1      37.239  49.028   6.738  1.00  0.00     0.007 A 
ATOM      3  C   UNL     1      36.644  47.767   6.903  1.00  0.00     0.061 A 
ATOM      4  C   UNL     1      36.401  50.142   6.568  1.00  0.00     0.122 A 
ATOM      5  C   UNL     1      35.253  47.637   6.922  1.00  0.00     0.162 A 
ATOM      6  C   UNL     1      34.456  48.779   6.727  1.00  0.00     0.166 A 
ENDROOT
BRANCH   5   7
ATOM      7  O   UNL     1      34.687  46.373   7.118  1.00  0.00    -0.482 OA
BRANCH   7   8
ATOM      8  C   UNL     1      33.857  46.068   8.241  1.00  0.00     0.203 C 
ATOM      9  C   UNL     1      34.581  46.404   9.547  1.00  0.00     0.058 C 
BRANCH   8  10
ATOM     10  C   UNL     1      33.443  44.602   8.209  1.00  0.00     0.032 A 
ATOM     11  C   UNL     1      32.074  44.237   8.317  1.00  0.00     0.085 A 
ATOM     12  C   UNL     1      31.699  42.888   8.275  1.00  0.00     0.142 A 
ATOM     13  C   UNL     1      34.413  43.567   8.110  1.00  0.00     0.049 A 
ATOM     14  C   UNL     1      32.663  41.892   8.148  1.00  0.00     0.042 A 
ATOM     15  C   UNL     1      34.011  42.228   8.073  1.00  0.00     0.024 A 
ATOM     16  Cl  UNL     1      30.790  45.429   8.521  1.00  0.00    -0.081 Cl
ATOM     17  F   UNL     1      30.391  42.536   8.367  1.00  0.00    -0.205 F 
ATOM     18  Cl  UNL     1      36.148  43.881   8.048  1.00  0.00    -0.084 Cl
ENDBRANCH   8  10
ENDBRANCH   7   8
ENDBRANCH   5   7
BRANCH   6  19
ATOM     19  N   UNL     1      33.031  48.684   6.646  1.00  0.00    -0.381 N 
ATOM     20  H   UNL     1      32.534  48.642   5.728  1.00  0.00     0.158 HD
ATOM     21  H   UNL     1      32.457  48.718   7.517  1.00  0.00     0.158 HD
ENDBRANCH   6  19
BRANCH   2  22
ATOM     22  C   UNL     1      38.714  49.182   6.746  1.00  0.00     0.021 A 
ATOM     23  C   UNL     1      39.438  50.359   6.693  1.00  0.00     0.117 A 
ATOM     24  C   UNL     1      39.674  48.182   6.807  1.00  0.00     0.143 A 
ATOM     25  N   UNL     1      40.747  50.051   6.733  1.00  0.00    -0.269 N 
ATOM     26  N   UNL     1      40.901  48.737   6.793  1.00  0.00    -0.181 NA
BRANCH  25  27
ATOM     27  C   UNL     1      41.851  51.008   6.640  1.00  0.00     0.110 C 
ATOM     28  C   UNL     1      41.660  52.159   7.641  1.00  0.00     0.042 C 
ATOM     29  C   UNL     1      43.189  50.297   6.890  1.00  0.00     0.042 C 
ATOM     30  C   UNL     1      42.874  53.096   7.611  1.00  0.00     0.083 C 
ATOM     31  C   UNL     1      44.340  51.311   6.892  1.00  0.00     0.083 C 
ATOM     32  N   UNL     1      44.106  52.351   7.906  1.00  0.00    -0.317 NA
ATOM     33  H   UNL     1      44.905  53.026   7.860  1.00  0.00     0.122 HD
ENDBRANCH  25  27
ENDBRANCH   2  22
TORSDOF 6
ENDMDL
MODEL 9
REMARK VINA RESULT:      -5.9      4.547      9.228
REMARK SMILES C[C@@H](Oc1cc(-c2cnn(C3CCNCC3)c2)cnc1N)c1c(Cl)ccc(F)c1Cl
REMARK SMILES IDX 19 1 6 2 5 3 18 4 4 5 20 6 3 7 2 8 1 9 22 10 29 11 27 12
REMARK SMILES IDX 23 13 26 14 25 15 30 16 28 17 24 18 21 19 7 22 17 23 8 24
REMARK SMILES IDX 10 25 9 26 11 27 12 28 16 29 13 30 15 31 14 32
REMARK H PARENT 21 20 21 21 14 33
ROOT
ATOM      1  N   UNL     1      38.216  45.125   8.581  1.00  0.00    -0.235 NA
ATOM      2  C   UNL     1      36.225  46.390   8.148  1.00  0.00     0.007 A 
ATOM      3  C   UNL     1      37.014  47.547   8.048  1.00  0.00     0.061 A 
ATOM      4  C   UNL     1      36.867  45.172   8.424  1.00  0.00     0.122 A 
ATOM      5  C   UNL     1      38.395  47.484   8.243  1.00  0.00     0.162 A 
ATOM      6  C   UNL     1      38.994  46.236   8.498  1.00  0.00     0.166 A 
ENDROOT
BRANCH   5   7
ATOM      7  O   UNL     1      39.152  48.657   8.167  1.00  0.00    -0.482 OA
BRANCH   7   8
ATOM      8  C   UNL     1      39.541  49.243   6.923  1.00  0.00     0.203 C 
ATOM      9  C   UNL     1      40.974  48.838   6.567  1.00  0.00     0.058 C 
BRANCH   8  10
ATOM     10  C   UNL     1      39.404  50.759   6.987  1.00  0.00     0.032 A 
ATOM     11  C   UNL     1      38.125  51.371   6.902  1.00  0.00     0.085 A 
ATOM     12  C   UNL     1      38.004  52.765   6.972  1.00  0.00     0.142 A 
ATOM     13  C   UNL     1      40.548  51.596   7.095  1.00  0.00     0.049 A 
ATOM     14  C   UNL     1      39.136  53.565   7.108  1.00  0.00     0.042 A 
ATOM     15  C   UNL     1      40.400  52.985   7.161  1.00  0.00     0.024 A 
ATOM     16  Cl  UNL     1      36.642  50.439   6.690  1.00  0.00    -0.081 Cl
ATOM     17  F   UNL     1      36.782  53.353   6.902  1.00  0.00    -0.205 F 
ATOM     18  Cl  UNL     1      42.197  50.968   7.131  1.00  0.00    -0.084 Cl
ENDBRANCH   8  10
ENDBRANCH   7   8
ENDBRANCH   5   7
BRANCH   6  19
ATOM     19  N   UNL     1      40.413  46.104   8.613  1.00  0.00    -0.381 N 
ATOM     20  H   UNL     1      40.913  45.243   8.300  1.00  0.00     0.158 HD
ATOM     21  H   UNL     1      40.970  46.856   9.077  1.00  0.00     0.158 HD
ENDBRANCH   6  19
BRANCH   2  22
ATOM     22  C   UNL     1      34.754  46.451   7.972  1.00  0.00     0.021 A 
ATOM     23  C   UNL     1      33.829  45.471   8.275  1.00  0.00     0.117 A 
ATOM     24  C   UNL     1      34.001  47.501   7.466  1.00  0.00     0.143 A 
ATOM     25  N   UNL     1      32.604  45.937   7.969  1.00  0.00    -0.269 N 
ATOM     26  N   UNL     1      32.698  47.161   7.472  1.00  0.00    -0.181 NA
BRANCH  25  27
ATOM     27  C   UNL     1      31.352  45.186   8.085  1.00  0.00     0.110 C 
ATOM     28  C   UNL     1      31.435  44.162   9.229  1.00  0.00     0.042 C 
ATOM     29  C   UNL     1      30.178  46.150   8.312  1.00  0.00     0.042 C 
ATOM     30  C   UNL     1      30.084  43.459   9.410  1.00  0.00     0.083 C 
ATOM     31  C   UNL     1      28.879  45.365   8.533  1.00  0.00     0.083 C 
ATOM     32  N   UNL     1      29.023  44.443   9.670  1.00  0.00    -0.317 NA
ATOM     33  H   UNL     1      28.122  43.920   9.772  1.00  0.00     0.122 HD
ENDBRANCH  25  27
ENDBRANCH   2  22
TORSDOF 6
ENDMDL
