MODEL 1
REMARK VINA RESULT:      -8.3      0.000      0.000
REMARK SMILES C[C@@H]1CN(C(=O)c2ccc(NC(=O)c3cc(O[C@H](C)c4c(Cl)ccc(F)c4Cl)c(N)nn3)cc2)C[C@H](C)N1
REMARK SMILES IDX 32 1 31 2 14 3 16 4 15 5 29 6 17 7 18 8 19 9 20 10 27 11
REMARK SMILES IDX 25 12 21 13 24 14 23 15 28 16 26 17 22 18 30 19 12 22 11 23
REMARK SMILES IDX 13 24 10 26 9 27 33 28 8 29 34 30 7 31 5 32 6 33 4 34 3 35
REMARK SMILES IDX 35 36 2 37 36 38 38 39 1 40 37 41
REMARK H PARENT 30 20 30 21 11 25 38 42
ROOT
ATOM      1  N   UNL     1      41.479  44.232   9.066  1.00  0.00    -0.143 NA
ATOM      2  N   UNL     1      42.692  43.928   9.524  1.00  0.00    -0.128 NA
ATOM      3  C   UNL     1      41.204  45.449   8.531  1.00  0.00     0.155 A 
ATOM      4  C   UNL     1      43.506  46.099   8.930  1.00  0.00     0.166 A 
ATOM      5  C   UNL     1      42.227  46.403   8.458  1.00  0.00     0.086 A 
ATOM      6  C   UNL     1      43.723  44.815   9.482  1.00  0.00     0.188 A 
ENDROOT
BRANCH   4   7
ATOM      7  O   UNL     1      44.479  47.113   8.814  1.00  0.00    -0.482 OA
BRANCH   7   8
ATOM      8  C   UNL     1      44.758  47.940   7.681  1.00  0.00     0.203 C 
ATOM      9  C   UNL     1      45.847  47.276   6.839  1.00  0.00     0.058 C 
BRANCH   8  10
ATOM     10  C   UNL     1      45.203  49.343   8.091  1.00  0.00     0.032 A 
ATOM     11  C   UNL     1      46.371  49.556   8.876  1.00  0.00     0.085 A 
ATOM     12  C   UNL     1      46.747  50.856   9.240  1.00  0.00     0.142 A 
ATOM     13  C   UNL     1      44.485  50.478   7.632  1.00  0.00     0.049 A 
ATOM     14  C   UNL     1      45.996  51.951   8.821  1.00  0.00     0.042 A 
ATOM     15  C   UNL     1      44.879  51.763   8.014  1.00  0.00     0.024 A 
ATOM     16  Cl  UNL     1      47.420  48.236   9.398  1.00  0.00    -0.081 Cl
ATOM     17  F   UNL     1      47.851  51.063  10.000  1.00  0.00    -0.205 F 
ATOM     18  Cl  UNL     1      43.092  50.350   6.556  1.00  0.00    -0.084 Cl
ENDBRANCH   8  10
ENDBRANCH   7   8
ENDBRANCH   4   7
BRANCH   6  19
ATOM     19  N   UNL     1      44.987  44.422  10.006  1.00  0.00    -0.379 N 
ATOM     20  H   UNL     1      45.280  44.691  10.970  1.00  0.00     0.158 HD
ATOM     21  H   UNL     1      45.275  44.695  10.973  1.00  0.00     0.158 HD
ENDBRANCH   6  19
BRANCH   3  22
ATOM     22  C   UNL     1      39.839  45.747   8.053  1.00  0.00     0.276 C 
ATOM     23  N   UNL     1      38.745  44.891   8.413  1.00  0.00    -0.321 N 
ATOM     24  O   UNL     1      39.641  46.734   7.290  1.00  0.00    -0.267 OA
ATOM     25  H   UNL     1      38.951  43.899   8.665  1.00  0.00     0.170 HD
BRANCH  23  26
ATOM     26  C   UNL     1      37.371  45.293   8.315  1.00  0.00     0.041 A 
ATOM     27  C   UNL     1      36.675  45.680   9.470  1.00  0.00     0.027 A 
ATOM     28  C   UNL     1      36.715  45.335   7.073  1.00  0.00     0.027 A 
ATOM     29  C   UNL     1      35.331  46.056   9.395  1.00  0.00     0.016 A 
ATOM     30  C   UNL     1      35.376  45.725   6.996  1.00  0.00     0.016 A 
ATOM     31  C   UNL     1      34.664  46.064   8.158  1.00  0.00     0.040 A 
BRANCH  31  32
ATOM     32  C   UNL     1      33.235  46.435   8.077  1.00  0.00     0.253 C 
ATOM     33  O   UNL     1      32.916  47.640   7.878  1.00  0.00    -0.269 OA
BRANCH  32  34
ATOM     34  N   UNL     1      32.202  45.441   8.211  1.00  0.00    -0.336 N 
ATOM     35  C   UNL     1      30.815  45.875   8.410  1.00  0.00     0.138 C 
ATOM     36  C   UNL     1      32.426  44.097   7.665  1.00  0.00     0.138 C 
ATOM     37  C   UNL     1      30.018  44.778   9.144  1.00  0.00     0.070 C 
ATOM     38  C   UNL     1      31.579  43.069   8.434  1.00  0.00     0.070 C 
ATOM     39  N   UNL     1      30.165  43.480   8.462  1.00  0.00    -0.308 NA
ATOM     40  C   UNL     1      28.537  45.150   9.236  1.00  0.00     0.026 C 
ATOM     41  C   UNL     1      31.705  41.681   7.806  1.00  0.00     0.026 C 
ATOM     42  H   UNL     1      29.815  43.569   7.477  1.00  0.00     0.123 HD
ENDBRANCH  32  34
ENDBRANCH  31  32
ENDBRANCH  23  26
ENDBRANCH   3  22
TORSDOF 8
ENDMDL
MODEL 2
REMARK VINA RESULT:      -8.3      0.970      1.774
REMARK SMILES C[C@@H]1CN(C(=O)c2ccc(NC(=O)c3cc(O[C@H](C)c4c(Cl)ccc(F)c4Cl)c(N)nn3)cc2)C[C@H](C)N1
REMARK SMILES IDX 32 1 31 2 14 3 16 4 15 5 29 6 17 7 18 8 19 9 20 10 27 11
REMARK SMILES IDX 25 12 21 13 24 14 23 15 28 16 26 17 22 18 30 19 12 22 11 23
REMARK SMILES IDX 13 24 10 26 9 27 33 28 8 29 34 30 7 31 5 32 6 33 4 34 3 35
REMARK SMILES IDX 35 36 2 37 36 38 38 39 1 40 37 41
REMARK H PARENT 30 20 30 21 11 25 38 42
ROOT
ATOM      1  N   UNL     1      40.988  44.159   8.906  1.00  0.00    -0.143 NA
ATOM      2  N   UNL     1      42.170  43.780   9.389  1.00  0.00    -0.128 NA
ATOM      3  C   UNL     1      40.777  45.420   8.447  1.00  0.00     0.155 A 
ATOM      4  C   UNL     1      43.083  45.954   8.977  1.00  0.00     0.166 A 
ATOM      5  C   UNL     1      41.834  46.338   8.479  1.00  0.00     0.086 A 
ATOM      6  C   UNL     1      43.232  44.629   9.447  1.00  0.00     0.188 A 
ENDROOT
BRANCH   4   7
ATOM      7  O   UNL     1      44.094  46.937   8.969  1.00  0.00    -0.482 OA
BRANCH   7   8
ATOM      8  C   UNL     1      44.611  47.660   7.848  1.00  0.00     0.203 C 
ATOM      9  C   UNL     1      45.291  46.677   6.897  1.00  0.00     0.058 C 
BRANCH   8  10
ATOM     10  C   UNL     1      45.602  48.742   8.271  1.00  0.00     0.032 A 
ATOM     11  C   UNL     1      45.485  50.083   7.810  1.00  0.00     0.085 A 
ATOM     12  C   UNL     1      46.416  51.050   8.212  1.00  0.00     0.142 A 
ATOM     13  C   UNL     1      46.634  48.437   9.197  1.00  0.00     0.049 A 
ATOM     14  C   UNL     1      47.450  50.715   9.081  1.00  0.00     0.042 A 
ATOM     15  C   UNL     1      47.552  49.419   9.579  1.00  0.00     0.024 A 
ATOM     16  Cl  UNL     1      44.171  50.617   6.759  1.00  0.00    -0.081 Cl
ATOM     17  F   UNL     1      46.317  52.327   7.764  1.00  0.00    -0.205 F 
ATOM     18  Cl  UNL     1      46.810  46.842   9.932  1.00  0.00    -0.084 Cl
ENDBRANCH   8  10
ENDBRANCH   7   8
ENDBRANCH   4   7
BRANCH   6  19
ATOM     19  N   UNL     1      44.460  44.155   9.991  1.00  0.00    -0.379 N 
ATOM     20  H   UNL     1      45.349  44.212   9.451  1.00  0.00     0.158 HD
ATOM     21  H   UNL     1      45.348  44.215   9.444  1.00  0.00     0.158 HD
ENDBRANCH   6  19
BRANCH   3  22
ATOM     22  C   UNL     1      39.444  45.800   7.939  1.00  0.00     0.276 C 
ATOM     23  N   UNL     1      38.279  45.072   8.354  1.00  0.00    -0.321 N 
ATOM     24  O   UNL     1      39.333  46.741   7.104  1.00  0.00    -0.267 OA
ATOM     25  H   UNL     1      38.397  44.087   8.678  1.00  0.00     0.170 HD
BRANCH  23  26
ATOM     26  C   UNL     1      36.945  45.585   8.216  1.00  0.00     0.041 A 
ATOM     27  C   UNL     1      36.259  46.048   9.349  1.00  0.00     0.027 A 
ATOM     28  C   UNL     1      36.323  45.659   6.958  1.00  0.00     0.027 A 
ATOM     29  C   UNL     1      34.953  46.532   9.235  1.00  0.00     0.016 A 
ATOM     30  C   UNL     1      35.023  46.156   6.843  1.00  0.00     0.016 A 
ATOM     31  C   UNL     1      34.317  46.574   7.984  1.00  0.00     0.040 A 
BRANCH  31  32
ATOM     32  C   UNL     1      32.925  47.061   7.862  1.00  0.00     0.253 C 
ATOM     33  O   UNL     1      32.712  48.276   7.595  1.00  0.00    -0.269 OA
BRANCH  32  34
ATOM     34  N   UNL     1      31.809  46.167   8.035  1.00  0.00    -0.336 N 
ATOM     35  C   UNL     1      30.446  46.696   7.921  1.00  0.00     0.138 C 
ATOM     36  C   UNL     1      32.004  44.728   7.818  1.00  0.00     0.138 C 
ATOM     37  C   UNL     1      29.470  45.819   8.730  1.00  0.00     0.070 C 
ATOM     38  C   UNL     1      30.978  43.929   8.639  1.00  0.00     0.070 C 
ATOM     39  N   UNL     1      29.612  44.400   8.361  1.00  0.00    -0.308 NA
ATOM     40  C   UNL     1      28.024  46.271   8.511  1.00  0.00     0.026 C 
ATOM     41  C   UNL     1      31.085  42.434   8.338  1.00  0.00     0.026 C 
ATOM     42  H   UNL     1      29.415  44.292   7.336  1.00  0.00     0.123 HD
ENDBRANCH  32  34
ENDBRANCH  31  32
ENDBRANCH  23  26
ENDBRANCH   3  22
TORSDOF 8
ENDMDL
MODEL 3
REMARK VINA RESULT:      -6.8      3.515      4.267
REMARK SMILES C[C@@H]1CN(C(=O)c2ccc(NC(=O)c3cc(O[C@H](C)c4c(Cl)ccc(F)c4Cl)c(N)nn3)cc2)C[C@H](C)N1
REMARK SMILES IDX 32 1 31 2 14 3 16 4 15 5 29 6 17 7 18 8 19 9 20 10 27 11
REMARK SMILES IDX 25 12 21 13 24 14 23 15 28 16 26 17 22 18 30 19 12 22 11 23
REMARK SMILES IDX 13 24 10 26 9 27 33 28 8 29 34 30 7 31 5 32 6 33 4 34 3 35
REMARK SMILES IDX 35 36 2 37 36 38 38 39 1 40 37 41
REMARK H PARENT 30 20 30 21 11 25 38 42
ROOT
ATOM      1  N   UNL     1      40.388  41.235   7.287  1.00  0.00    -0.143 NA
ATOM      2  N   UNL     1      41.369  40.338   7.381  1.00  0.00    -0.128 NA
ATOM      3  C   UNL     1      40.636  42.531   6.969  1.00  0.00     0.155 A 
ATOM      4  C   UNL     1      42.997  41.999   6.817  1.00  0.00     0.166 A 
ATOM      5  C   UNL     1      41.957  42.928   6.728  1.00  0.00     0.086 A 
ATOM      6  C   UNL     1      42.671  40.667   7.161  1.00  0.00     0.188 A 
ENDROOT
BRANCH   4   7
ATOM      7  O   UNL     1      44.297  42.480   6.555  1.00  0.00    -0.482 OA
BRANCH   7   8
ATOM      8  C   UNL     1      44.949  43.615   7.132  1.00  0.00     0.203 C 
ATOM      9  C   UNL     1      46.305  43.178   7.685  1.00  0.00     0.058 C 
BRANCH   8  10
ATOM     10  C   UNL     1      44.117  44.250   8.244  1.00  0.00     0.032 A 
ATOM     11  C   UNL     1      43.934  43.606   9.500  1.00  0.00     0.085 A 
ATOM     12  C   UNL     1      43.158  44.214  10.497  1.00  0.00     0.142 A 
ATOM     13  C   UNL     1      43.559  45.543   8.063  1.00  0.00     0.049 A 
ATOM     14  C   UNL     1      42.578  45.460  10.277  1.00  0.00     0.042 A 
ATOM     15  C   UNL     1      42.786  46.124   9.072  1.00  0.00     0.024 A 
ATOM     16  Cl  UNL     1      44.683  42.057   9.894  1.00  0.00    -0.081 Cl
ATOM     17  F   UNL     1      42.969  43.598  11.690  1.00  0.00    -0.205 F 
ATOM     18  Cl  UNL     1      43.816  46.492   6.598  1.00  0.00    -0.084 Cl
ENDBRANCH   8  10
ENDBRANCH   7   8
ENDBRANCH   4   7
BRANCH   6  19
ATOM     19  N   UNL     1      43.665  39.657   7.296  1.00  0.00    -0.379 N 
ATOM     20  H   UNL     1      43.833  39.181   8.209  1.00  0.00     0.158 HD
ATOM     21  H   UNL     1      43.829  39.184   8.214  1.00  0.00     0.158 HD
ENDBRANCH   6  19
BRANCH   3  22
ATOM     22  C   UNL     1      39.518  43.494   6.895  1.00  0.00     0.276 C 
ATOM     23  N   UNL     1      38.168  43.048   7.090  1.00  0.00    -0.321 N 
ATOM     24  O   UNL     1      39.747  44.704   6.619  1.00  0.00    -0.267 OA
ATOM     25  H   UNL     1      37.942  42.046   6.898  1.00  0.00     0.170 HD
BRANCH  23  26
ATOM     26  C   UNL     1      37.087  43.938   7.401  1.00  0.00     0.041 A 
ATOM     27  C   UNL     1      37.155  44.738   8.553  1.00  0.00     0.027 A 
ATOM     28  C   UNL     1      35.970  44.047   6.555  1.00  0.00     0.027 A 
ATOM     29  C   UNL     1      36.102  45.596   8.881  1.00  0.00     0.016 A 
ATOM     30  C   UNL     1      34.925  44.917   6.876  1.00  0.00     0.016 A 
ATOM     31  C   UNL     1      34.969  45.680   8.054  1.00  0.00     0.040 A 
BRANCH  31  32
ATOM     32  C   UNL     1      33.840  46.567   8.411  1.00  0.00     0.253 C 
ATOM     33  O   UNL     1      34.070  47.764   8.739  1.00  0.00    -0.269 OA
BRANCH  32  34
ATOM     34  N   UNL     1      32.483  46.088   8.382  1.00  0.00    -0.336 N 
ATOM     35  C   UNL     1      32.103  44.964   9.244  1.00  0.00     0.138 C 
ATOM     36  C   UNL     1      31.417  46.986   7.921  1.00  0.00     0.138 C 
ATOM     37  C   UNL     1      30.897  44.218   8.640  1.00  0.00     0.070 C 
ATOM     38  C   UNL     1      30.245  46.164   7.357  1.00  0.00     0.070 C 
ATOM     39  N   UNL     1      29.802  45.155   8.334  1.00  0.00    -0.308 NA
ATOM     40  C   UNL     1      30.397  43.129   9.592  1.00  0.00     0.026 C 
ATOM     41  C   UNL     1      29.074  47.073   6.980  1.00  0.00     0.026 C 
ATOM     42  H   UNL     1      29.509  45.640   9.217  1.00  0.00     0.123 HD
ENDBRANCH  32  34
ENDBRANCH  31  32
ENDBRANCH  23  26
ENDBRANCH   3  22
TORSDOF 8
ENDMDL
MODEL 4
REMARK VINA RESULT:      -6.6      2.654      3.498
REMARK SMILES C[C@@H]1CN(C(=O)c2ccc(NC(=O)c3cc(O[C@H](C)c4c(Cl)ccc(F)c4Cl)c(N)nn3)cc2)C[C@H](C)N1
REMARK SMILES IDX 32 1 31 2 14 3 16 4 15 5 29 6 17 7 18 8 19 9 20 10 27 11
REMARK SMILES IDX 25 12 21 13 24 14 23 15 28 16 26 17 22 18 30 19 12 22 11 23
REMARK SMILES IDX 13 24 10 26 9 27 33 28 8 29 34 30 7 31 5 32 6 33 4 34 3 35
REMARK SMILES IDX 35 36 2 37 36 38 38 39 1 40 37 41
REMARK H PARENT 30 20 30 21 11 25 38 42
ROOT
ATOM      1  N   UNL     1      40.167  41.447   7.485  1.00  0.00    -0.143 NA
ATOM      2  N   UNL     1      41.163  40.607   7.761  1.00  0.00    -0.128 NA
ATOM      3  C   UNL     1      40.378  42.781   7.341  1.00  0.00     0.155 A 
ATOM      4  C   UNL     1      42.737  42.411   7.766  1.00  0.00     0.166 A 
ATOM      5  C   UNL     1      41.679  43.279   7.482  1.00  0.00     0.086 A 
ATOM      6  C   UNL     1      42.447  41.035   7.911  1.00  0.00     0.188 A 
ENDROOT
BRANCH   4   7
ATOM      7  O   UNL     1      44.016  42.993   7.886  1.00  0.00    -0.482 OA
BRANCH   7   8
ATOM      8  C   UNL     1      44.487  43.879   8.905  1.00  0.00     0.203 C 
ATOM      9  C   UNL     1      43.414  44.007   9.985  1.00  0.00     0.058 C 
BRANCH   8  10
ATOM     10  C   UNL     1      44.831  45.260   8.350  1.00  0.00     0.032 A 
ATOM     11  C   UNL     1      46.061  45.510   7.679  1.00  0.00     0.085 A 
ATOM     12  C   UNL     1      46.347  46.791   7.188  1.00  0.00     0.142 A 
ATOM     13  C   UNL     1      43.886  46.315   8.437  1.00  0.00     0.049 A 
ATOM     14  C   UNL     1      45.425  47.824   7.332  1.00  0.00     0.042 A 
ATOM     15  C   UNL     1      44.198  47.585   7.943  1.00  0.00     0.024 A 
ATOM     16  Cl  UNL     1      47.262  44.249   7.393  1.00  0.00    -0.081 Cl
ATOM     17  F   UNL     1      47.524  47.038   6.561  1.00  0.00    -0.205 F 
ATOM     18  Cl  UNL     1      42.281  46.098   9.138  1.00  0.00    -0.084 Cl
ENDBRANCH   8  10
ENDBRANCH   7   8
ENDBRANCH   4   7
BRANCH   6  19
ATOM     19  N   UNL     1      43.455  40.079   8.221  1.00  0.00    -0.379 N 
ATOM     20  H   UNL     1      43.436  39.120   7.812  1.00  0.00     0.158 HD
ATOM     21  H   UNL     1      43.430  39.119   7.808  1.00  0.00     0.158 HD
ENDBRANCH   6  19
BRANCH   3  22
ATOM     22  C   UNL     1      39.238  43.675   7.055  1.00  0.00     0.276 C 
ATOM     23  N   UNL     1      37.894  43.227   7.281  1.00  0.00    -0.321 N 
ATOM     24  O   UNL     1      39.446  44.822   6.569  1.00  0.00    -0.267 OA
ATOM     25  H   UNL     1      37.703  42.200   7.270  1.00  0.00     0.170 HD
BRANCH  23  26
ATOM     26  C   UNL     1      36.778  44.123   7.387  1.00  0.00     0.041 A 
ATOM     27  C   UNL     1      36.817  45.175   8.314  1.00  0.00     0.027 A 
ATOM     28  C   UNL     1      35.654  43.982   6.555  1.00  0.00     0.027 A 
ATOM     29  C   UNL     1      35.730  46.045   8.444  1.00  0.00     0.016 A 
ATOM     30  C   UNL     1      34.574  44.861   6.675  1.00  0.00     0.016 A 
ATOM     31  C   UNL     1      34.592  45.884   7.637  1.00  0.00     0.040 A 
BRANCH  31  32
ATOM     32  C   UNL     1      33.428  46.785   7.789  1.00  0.00     0.253 C 
ATOM     33  O   UNL     1      33.588  48.031   7.670  1.00  0.00    -0.269 OA
BRANCH  32  34
ATOM     34  N   UNL     1      32.115  46.261   8.060  1.00  0.00    -0.336 N 
ATOM     35  C   UNL     1      31.987  45.015   8.822  1.00  0.00     0.138 C 
ATOM     36  C   UNL     1      30.963  47.171   8.040  1.00  0.00     0.138 C 
ATOM     37  C   UNL     1      30.662  44.312   8.468  1.00  0.00     0.070 C 
ATOM     38  C   UNL     1      29.682  46.389   7.703  1.00  0.00     0.070 C 
ATOM     39  N   UNL     1      29.525  45.238   8.608  1.00  0.00    -0.308 NA
ATOM     40  C   UNL     1      30.443  43.083   9.353  1.00  0.00     0.026 C 
ATOM     41  C   UNL     1      28.452  47.293   7.792  1.00  0.00     0.026 C 
ATOM     42  H   UNL     1      29.485  45.584   9.597  1.00  0.00     0.123 HD
ENDBRANCH  32  34
ENDBRANCH  31  32
ENDBRANCH  23  26
ENDBRANCH   3  22
TORSDOF 8
ENDMDL
MODEL 5
REMARK VINA RESULT:      -6.6      2.320      3.570
REMARK SMILES C[C@@H]1CN(C(=O)c2ccc(NC(=O)c3cc(O[C@H](C)c4c(Cl)ccc(F)c4Cl)c(N)nn3)cc2)C[C@H](C)N1
REMARK SMILES IDX 32 1 31 2 14 3 16 4 15 5 29 6 17 7 18 8 19 9 20 10 27 11
REMARK SMILES IDX 25 12 21 13 24 14 23 15 28 16 26 17 22 18 30 19 12 22 11 23
REMARK SMILES IDX 13 24 10 26 9 27 33 28 8 29 34 30 7 31 5 32 6 33 4 34 3 35
REMARK SMILES IDX 35 36 2 37 36 38 38 39 1 40 37 41
REMARK H PARENT 30 20 30 21 11 25 38 42
ROOT
ATOM      1  N   UNL     1      40.160  42.651   7.059  1.00  0.00    -0.143 NA
ATOM      2  N   UNL     1      41.451  42.323   7.059  1.00  0.00    -0.128 NA
ATOM      3  C   UNL     1      39.754  43.945   6.992  1.00  0.00     0.155 A 
ATOM      4  C   UNL     1      42.080  44.627   6.909  1.00  0.00     0.166 A 
ATOM      5  C   UNL     1      40.722  44.955   6.916  1.00  0.00     0.086 A 
ATOM      6  C   UNL     1      42.435  43.261   6.989  1.00  0.00     0.188 A 
ENDROOT
BRANCH   4   7
ATOM      7  O   UNL     1      42.989  45.703   6.825  1.00  0.00    -0.482 OA
BRANCH   7   8
ATOM      8  C   UNL     1      42.972  46.929   7.561  1.00  0.00     0.203 C 
ATOM      9  C   UNL     1      42.517  48.056   6.635  1.00  0.00     0.058 C 
BRANCH   8  10
ATOM     10  C   UNL     1      44.341  47.263   8.150  1.00  0.00     0.032 A 
ATOM     11  C   UNL     1      45.041  48.447   7.786  1.00  0.00     0.085 A 
ATOM     12  C   UNL     1      46.299  48.720   8.340  1.00  0.00     0.142 A 
ATOM     13  C   UNL     1      44.916  46.418   9.135  1.00  0.00     0.049 A 
ATOM     14  C   UNL     1      46.866  47.849   9.266  1.00  0.00     0.042 A 
ATOM     15  C   UNL     1      46.174  46.711   9.668  1.00  0.00     0.024 A 
ATOM     16  Cl  UNL     1      44.375  49.642   6.671  1.00  0.00    -0.081 Cl
ATOM     17  F   UNL     1      46.977  49.840   7.985  1.00  0.00    -0.205 F 
ATOM     18  Cl  UNL     1      44.092  44.986   9.756  1.00  0.00    -0.084 Cl
ENDBRANCH   8  10
ENDBRANCH   7   8
ENDBRANCH   4   7
BRANCH   6  19
ATOM     19  N   UNL     1      43.792  42.833   7.010  1.00  0.00    -0.379 N 
ATOM     20  H   UNL     1      44.130  42.072   6.382  1.00  0.00     0.158 HD
ATOM     21  H   UNL     1      44.124  42.069   6.378  1.00  0.00     0.158 HD
ENDBRANCH   6  19
BRANCH   3  22
ATOM     22  C   UNL     1      38.312  44.262   7.015  1.00  0.00     0.276 C 
ATOM     23  N   UNL     1      37.356  43.250   7.363  1.00  0.00    -0.321 N 
ATOM     24  O   UNL     1      37.916  45.415   6.685  1.00  0.00    -0.267 OA
ATOM     25  H   UNL     1      37.618  42.249   7.221  1.00  0.00     0.170 HD
BRANCH  23  26
ATOM     26  C   UNL     1      36.012  43.549   7.766  1.00  0.00     0.041 A 
ATOM     27  C   UNL     1      34.976  43.502   6.820  1.00  0.00     0.027 A 
ATOM     28  C   UNL     1      35.707  43.858   9.102  1.00  0.00     0.027 A 
ATOM     29  C   UNL     1      33.664  43.808   7.191  1.00  0.00     0.016 A 
ATOM     30  C   UNL     1      34.393  44.150   9.476  1.00  0.00     0.016 A 
ATOM     31  C   UNL     1      33.364  44.152   8.520  1.00  0.00     0.040 A 
BRANCH  31  32
ATOM     32  C   UNL     1      31.981  44.503   8.912  1.00  0.00     0.253 C 
ATOM     33  O   UNL     1      31.339  43.734   9.680  1.00  0.00    -0.269 OA
BRANCH  32  34
ATOM     34  N   UNL     1      31.361  45.713   8.439  1.00  0.00    -0.336 N 
ATOM     35  C   UNL     1      32.181  46.714   7.749  1.00  0.00     0.138 C 
ATOM     36  C   UNL     1      29.914  45.725   8.189  1.00  0.00     0.138 C 
ATOM     37  C   UNL     1      31.548  48.111   7.900  1.00  0.00     0.070 C 
ATOM     38  C   UNL     1      29.368  47.156   8.336  1.00  0.00     0.070 C 
ATOM     39  N   UNL     1      30.132  48.091   7.494  1.00  0.00    -0.308 NA
ATOM     40  C   UNL     1      32.311  49.147   7.071  1.00  0.00     0.026 C 
ATOM     41  C   UNL     1      27.886  47.213   7.965  1.00  0.00     0.026 C 
ATOM     42  H   UNL     1      30.067  47.782   6.494  1.00  0.00     0.123 HD
ENDBRANCH  32  34
ENDBRANCH  31  32
ENDBRANCH  23  26
ENDBRANCH   3  22
TORSDOF 8
ENDMDL
MODEL 6
REMARK VINA RESULT:      -6.5      3.479      4.945
REMARK SMILES C[C@@H]1CN(C(=O)c2ccc(NC(=O)c3cc(O[C@H](C)c4c(Cl)ccc(F)c4Cl)c(N)nn3)cc2)C[C@H](C)N1
REMARK SMILES IDX 32 1 31 2 14 3 16 4 15 5 29 6 17 7 18 8 19 9 20 10 27 11
REMARK SMILES IDX 25 12 21 13 24 14 23 15 28 16 26 17 22 18 30 19 12 22 11 23
REMARK SMILES IDX 13 24 10 26 9 27 33 28 8 29 34 30 7 31 5 32 6 33 4 34 3 35
REMARK SMILES IDX 35 36 2 37 36 38 38 39 1 40 37 41
REMARK H PARENT 30 20 30 21 11 25 38 42
ROOT
ATOM      1  N   UNL     1      41.129  49.583   6.593  1.00  0.00    -0.143 NA
ATOM      2  N   UNL     1      42.458  49.500   6.593  1.00  0.00    -0.128 NA
ATOM      3  C   UNL     1      40.347  48.496   6.820  1.00  0.00     0.155 A 
ATOM      4  C   UNL     1      42.354  47.157   7.072  1.00  0.00     0.166 A 
ATOM      5  C   UNL     1      40.960  47.261   7.064  1.00  0.00     0.086 A 
ATOM      6  C   UNL     1      43.108  48.326   6.821  1.00  0.00     0.188 A 
ENDROOT
BRANCH   4   7
ATOM      7  O   UNL     1      42.890  45.879   7.330  1.00  0.00    -0.482 OA
BRANCH   7   8
ATOM      8  C   UNL     1      42.635  45.028   8.451  1.00  0.00     0.203 C 
ATOM      9  C   UNL     1      42.805  45.837   9.736  1.00  0.00     0.058 C 
BRANCH   8  10
ATOM     10  C   UNL     1      43.565  43.816   8.475  1.00  0.00     0.032 A 
ATOM     11  C   UNL     1      43.060  42.487   8.441  1.00  0.00     0.085 A 
ATOM     12  C   UNL     1      43.942  41.397   8.471  1.00  0.00     0.142 A 
ATOM     13  C   UNL     1      44.972  44.002   8.463  1.00  0.00     0.049 A 
ATOM     14  C   UNL     1      45.317  41.605   8.512  1.00  0.00     0.042 A 
ATOM     15  C   UNL     1      45.829  42.898   8.498  1.00  0.00     0.024 A 
ATOM     16  Cl  UNL     1      41.336  42.126   8.323  1.00  0.00    -0.081 Cl
ATOM     17  F   UNL     1      43.464  40.128   8.453  1.00  0.00    -0.205 F 
ATOM     18  Cl  UNL     1      45.720  45.598   8.383  1.00  0.00    -0.084 Cl
ENDBRANCH   8  10
ENDBRANCH   7   8
ENDBRANCH   4   7
BRANCH   6  19
ATOM     19  N   UNL     1      44.532  48.314   6.788  1.00  0.00    -0.379 N 
ATOM     20  H   UNL     1      45.062  48.891   6.101  1.00  0.00     0.158 HD
ATOM     21  H   UNL     1      45.058  48.895   6.097  1.00  0.00     0.158 HD
ENDBRANCH   6  19
BRANCH   3  22
ATOM     22  C   UNL     1      38.877  48.633   6.791  1.00  0.00     0.276 C 
ATOM     23  N   UNL     1      38.042  47.469   6.860  1.00  0.00    -0.321 N 
ATOM     24  O   UNL     1      38.354  49.776   6.663  1.00  0.00    -0.267 OA
ATOM     25  H   UNL     1      38.437  46.554   6.548  1.00  0.00     0.170 HD
BRANCH  23  26
ATOM     26  C   UNL     1      36.650  47.522   7.207  1.00  0.00     0.041 A 
ATOM     27  C   UNL     1      36.158  46.699   8.232  1.00  0.00     0.027 A 
ATOM     28  C   UNL     1      35.774  48.409   6.559  1.00  0.00     0.027 A 
ATOM     29  C   UNL     1      34.802  46.725   8.570  1.00  0.00     0.016 A 
ATOM     30  C   UNL     1      34.422  48.445   6.907  1.00  0.00     0.016 A 
ATOM     31  C   UNL     1      33.918  47.586   7.898  1.00  0.00     0.040 A 
BRANCH  31  32
ATOM     32  C   UNL     1      32.478  47.597   8.233  1.00  0.00     0.253 C 
ATOM     33  O   UNL     1      31.898  48.698   8.444  1.00  0.00    -0.269 OA
BRANCH  32  34
ATOM     34  N   UNL     1      31.725  46.373   8.314  1.00  0.00    -0.336 N 
ATOM     35  C   UNL     1      30.262  46.436   8.386  1.00  0.00     0.138 C 
ATOM     36  C   UNL     1      32.331  45.126   7.829  1.00  0.00     0.138 C 
ATOM     37  C   UNL     1      29.711  45.178   9.086  1.00  0.00     0.070 C 
ATOM     38  C   UNL     1      31.712  43.922   8.558  1.00  0.00     0.070 C 
ATOM     39  N   UNL     1      30.243  43.956   8.459  1.00  0.00    -0.308 NA
ATOM     40  C   UNL     1      28.182  45.158   9.046  1.00  0.00     0.026 C 
ATOM     41  C   UNL     1      32.242  42.607   7.986  1.00  0.00     0.026 C 
ATOM     42  H   UNL     1      29.969  43.943   7.446  1.00  0.00     0.123 HD
ENDBRANCH  32  34
ENDBRANCH  31  32
ENDBRANCH  23  26
ENDBRANCH   3  22
TORSDOF 8
ENDMDL
MODEL 7
REMARK VINA RESULT:      -6.5      3.554      5.342
REMARK SMILES C[C@@H]1CN(C(=O)c2ccc(NC(=O)c3cc(O[C@H](C)c4c(Cl)ccc(F)c4Cl)c(N)nn3)cc2)C[C@H](C)N1
REMARK SMILES IDX 32 1 31 2 14 3 16 4 15 5 29 6 17 7 18 8 19 9 20 10 27 11
REMARK SMILES IDX 25 12 21 13 24 14 23 15 28 16 26 17 22 18 30 19 12 22 11 23
REMARK SMILES IDX 13 24 10 26 9 27 33 28 8 29 34 30 7 31 5 32 6 33 4 34 3 35
REMARK SMILES IDX 35 36 2 37 36 38 38 39 1 40 37 41
REMARK H PARENT 30 20 30 21 11 25 38 42
ROOT
ATOM      1  N   UNL     1      44.180  49.893   6.635  1.00  0.00    -0.143 NA
ATOM      2  N   UNL     1      45.497  49.763   6.785  1.00  0.00    -0.128 NA
ATOM      3  C   UNL     1      43.328  48.869   6.900  1.00  0.00     0.155 A 
ATOM      4  C   UNL     1      45.233  47.499   7.516  1.00  0.00     0.166 A 
ATOM      5  C   UNL     1      43.854  47.651   7.348  1.00  0.00     0.086 A 
ATOM      6  C   UNL     1      46.064  48.603   7.214  1.00  0.00     0.188 A 
ENDROOT
BRANCH   4   7
ATOM      7  O   UNL     1      45.678  46.243   7.975  1.00  0.00    -0.482 OA
BRANCH   7   8
ATOM      8  C   UNL     1      45.295  45.556   9.170  1.00  0.00     0.203 C 
ATOM      9  C   UNL     1      46.464  45.585  10.153  1.00  0.00     0.058 C 
BRANCH   8  10
ATOM     10  C   UNL     1      44.886  44.110   8.894  1.00  0.00     0.032 A 
ATOM     11  C   UNL     1      45.756  43.203   8.226  1.00  0.00     0.085 A 
ATOM     12  C   UNL     1      45.347  41.885   7.983  1.00  0.00     0.142 A 
ATOM     13  C   UNL     1      43.639  43.623   9.365  1.00  0.00     0.049 A 
ATOM     14  C   UNL     1      44.097  41.444   8.410  1.00  0.00     0.042 A 
ATOM     15  C   UNL     1      43.254  42.305   9.105  1.00  0.00     0.024 A 
ATOM     16  Cl  UNL     1      47.383  43.651   7.707  1.00  0.00    -0.081 Cl
ATOM     17  F   UNL     1      46.167  41.020   7.335  1.00  0.00    -0.205 F 
ATOM     18  Cl  UNL     1      42.527  44.616  10.309  1.00  0.00    -0.084 Cl
ENDBRANCH   8  10
ENDBRANCH   7   8
ENDBRANCH   4   7
BRANCH   6  19
ATOM     19  N   UNL     1      47.481  48.536   7.335  1.00  0.00    -0.379 N 
ATOM     20  H   UNL     1      48.076  48.202   6.546  1.00  0.00     0.158 HD
ATOM     21  H   UNL     1      48.072  48.200   6.541  1.00  0.00     0.158 HD
ENDBRANCH   6  19
BRANCH   3  22
ATOM     22  C   UNL     1      41.877  49.054   6.700  1.00  0.00     0.276 C 
ATOM     23  N   UNL     1      41.008  47.915   6.620  1.00  0.00    -0.321 N 
ATOM     24  O   UNL     1      41.405  50.217   6.555  1.00  0.00    -0.267 OA
ATOM     25  H   UNL     1      41.413  47.000   6.321  1.00  0.00     0.170 HD
BRANCH  23  26
ATOM     26  C   UNL     1      39.587  48.000   6.799  1.00  0.00     0.041 A 
ATOM     27  C   UNL     1      38.796  46.853   6.633  1.00  0.00     0.027 A 
ATOM     28  C   UNL     1      38.973  49.209   7.168  1.00  0.00     0.027 A 
ATOM     29  C   UNL     1      37.408  46.922   6.785  1.00  0.00     0.016 A 
ATOM     30  C   UNL     1      37.588  49.275   7.334  1.00  0.00     0.016 A 
ATOM     31  C   UNL     1      36.790  48.139   7.119  1.00  0.00     0.040 A 
BRANCH  31  32
ATOM     32  C   UNL     1      35.319  48.223   7.255  1.00  0.00     0.253 C 
ATOM     33  O   UNL     1      34.695  49.157   6.678  1.00  0.00    -0.269 OA
BRANCH  32  34
ATOM     34  N   UNL     1      34.589  47.252   8.026  1.00  0.00    -0.336 N 
ATOM     35  C   UNL     1      34.852  47.138   9.464  1.00  0.00     0.138 C 
ATOM     36  C   UNL     1      33.295  46.769   7.529  1.00  0.00     0.138 C 
ATOM     37  C   UNL     1      34.502  45.719   9.955  1.00  0.00     0.070 C 
ATOM     38  C   UNL     1      33.012  45.362   8.082  1.00  0.00     0.070 C 
ATOM     39  N   UNL     1      33.135  45.347   9.549  1.00  0.00    -0.308 NA
ATOM     40  C   UNL     1      34.636  45.620  11.476  1.00  0.00     0.026 C 
ATOM     41  C   UNL     1      31.617  44.886   7.672  1.00  0.00     0.026 C 
ATOM     42  H   UNL     1      32.458  46.037   9.956  1.00  0.00     0.123 HD
ENDBRANCH  32  34
ENDBRANCH  31  32
ENDBRANCH  23  26
ENDBRANCH   3  22
TORSDOF 8
ENDMDL
MODEL 8
REMARK VINA RESULT:      -5.9      3.417      4.941
REMARK SMILES C[C@@H]1CN(C(=O)c2ccc(NC(=O)c3cc(O[C@H](C)c4c(Cl)ccc(F)c4Cl)c(N)nn3)cc2)C[C@H](C)N1
REMARK SMILES IDX 32 1 31 2 14 3 16 4 15 5 29 6 17 7 18 8 19 9 20 10 27 11
REMARK SMILES IDX 25 12 21 13 24 14 23 15 28 16 26 17 22 18 30 19 12 22 11 23
REMARK SMILES IDX 13 24 10 26 9 27 33 28 8 29 34 30 7 31 5 32 6 33 4 34 3 35
REMARK SMILES IDX 35 36 2 37 36 38 38 39 1 40 37 41
REMARK H PARENT 30 20 30 21 11 25 38 42
ROOT
ATOM      1  N   UNL     1      41.744  49.878   6.763  1.00  0.00    -0.143 NA
ATOM      2  N   UNL     1      43.072  49.787   6.803  1.00  0.00    -0.128 NA
ATOM      3  C   UNL     1      40.952  48.778   6.847  1.00  0.00     0.155 A 
ATOM      4  C   UNL     1      42.945  47.408   7.033  1.00  0.00     0.166 A 
ATOM      5  C   UNL     1      41.552  47.521   6.984  1.00  0.00     0.086 A 
ATOM      6  C   UNL     1      43.711  48.592   6.932  1.00  0.00     0.188 A 
ENDROOT
BRANCH   4   7
ATOM      7  O   UNL     1      43.468  46.107   7.177  1.00  0.00    -0.482 OA
BRANCH   7   8
ATOM      8  C   UNL     1      43.021  45.071   8.056  1.00  0.00     0.203 C 
ATOM      9  C   UNL     1      43.196  45.538   9.501  1.00  0.00     0.058 C 
BRANCH   8  10
ATOM     10  C   UNL     1      43.783  43.765   7.838  1.00  0.00     0.032 A 
ATOM     11  C   UNL     1      45.205  43.732   7.782  1.00  0.00     0.085 A 
ATOM     12  C   UNL     1      45.873  42.517   7.574  1.00  0.00     0.142 A 
ATOM     13  C   UNL     1      43.077  42.537   7.754  1.00  0.00     0.049 A 
ATOM     14  C   UNL     1      45.155  41.331   7.442  1.00  0.00     0.042 A 
ATOM     15  C   UNL     1      43.768  41.340   7.542  1.00  0.00     0.024 A 
ATOM     16  Cl  UNL     1      46.201  45.172   8.003  1.00  0.00    -0.081 Cl
ATOM     17  F   UNL     1      47.227  42.482   7.505  1.00  0.00    -0.205 F 
ATOM     18  Cl  UNL     1      41.324  42.434   7.929  1.00  0.00    -0.084 Cl
ENDBRANCH   8  10
ENDBRANCH   7   8
ENDBRANCH   4   7
BRANCH   6  19
ATOM     19  N   UNL     1      45.134  48.575   6.952  1.00  0.00    -0.379 N 
ATOM     20  H   UNL     1      45.660  48.204   7.772  1.00  0.00     0.158 HD
ATOM     21  H   UNL     1      45.655  48.202   7.777  1.00  0.00     0.158 HD
ENDBRANCH   6  19
BRANCH   3  22
ATOM     22  C   UNL     1      39.484  48.927   6.778  1.00  0.00     0.276 C 
ATOM     23  N   UNL     1      38.640  47.766   6.789  1.00  0.00    -0.321 N 
ATOM     24  O   UNL     1      38.973  50.076   6.666  1.00  0.00    -0.267 OA
ATOM     25  H   UNL     1      39.039  46.858   6.463  1.00  0.00     0.170 HD
BRANCH  23  26
ATOM     26  C   UNL     1      37.239  47.820   7.096  1.00  0.00     0.041 A 
ATOM     27  C   UNL     1      36.684  46.877   7.974  1.00  0.00     0.027 A 
ATOM     28  C   UNL     1      36.416  48.822   6.555  1.00  0.00     0.027 A 
ATOM     29  C   UNL     1      35.318  46.903   8.269  1.00  0.00     0.016 A 
ATOM     30  C   UNL     1      35.054  48.857   6.862  1.00  0.00     0.016 A 
ATOM     31  C   UNL     1      34.487  47.884   7.701  1.00  0.00     0.040 A 
BRANCH  31  32
ATOM     32  C   UNL     1      33.036  47.900   7.989  1.00  0.00     0.253 C 
ATOM     33  O   UNL     1      32.412  48.997   7.977  1.00  0.00    -0.269 OA
BRANCH  32  34
ATOM     34  N   UNL     1      32.323  46.682   8.272  1.00  0.00    -0.336 N 
ATOM     35  C   UNL     1      32.920  45.700   9.183  1.00  0.00     0.138 C 
ATOM     36  C   UNL     1      30.867  46.645   8.088  1.00  0.00     0.138 C 
ATOM     37  C   UNL     1      32.381  44.290   8.869  1.00  0.00     0.070 C 
ATOM     38  C   UNL     1      30.410  45.204   7.803  1.00  0.00     0.070 C 
ATOM     39  N   UNL     1      30.908  44.287   8.842  1.00  0.00    -0.308 NA
ATOM     40  C   UNL     1      32.883  43.273   9.896  1.00  0.00     0.026 C 
ATOM     41  C   UNL     1      28.885  45.122   7.724  1.00  0.00     0.026 C 
ATOM     42  H   UNL     1      30.548  44.601   9.776  1.00  0.00     0.123 HD
ENDBRANCH  32  34
ENDBRANCH  31  32
ENDBRANCH  23  26
ENDBRANCH   3  22
TORSDOF 8
ENDMDL
MODEL 9
REMARK VINA RESULT:      -5.7      5.511     12.408
REMARK SMILES C[C@@H]1CN(C(=O)c2ccc(NC(=O)c3cc(O[C@H](C)c4c(Cl)ccc(F)c4Cl)c(N)nn3)cc2)C[C@H](C)N1
REMARK SMILES IDX 32 1 31 2 14 3 16 4 15 5 29 6 17 7 18 8 19 9 20 10 27 11
REMARK SMILES IDX 25 12 21 13 24 14 23 15 28 16 26 17 22 18 30 19 12 22 11 23
REMARK SMILES IDX 13 24 10 26 9 27 33 28 8 29 34 30 7 31 5 32 6 33 4 34 3 35
REMARK SMILES IDX 35 36 2 37 36 38 38 39 1 40 37 41
REMARK H PARENT 30 20 30 21 11 25 38 42
ROOT
ATOM      1  N   UNL     1      35.638  43.658   9.396  1.00  0.00    -0.143 NA
ATOM      2  N   UNL     1      34.447  43.453   9.956  1.00  0.00    -0.128 NA
ATOM      3  C   UNL     1      35.763  44.279   8.195  1.00  0.00     0.155 A 
ATOM      4  C   UNL     1      33.351  44.515   8.112  1.00  0.00     0.166 A 
ATOM      5  C   UNL     1      34.608  44.717   7.536  1.00  0.00     0.086 A 
ATOM      6  C   UNL     1      33.291  43.855   9.361  1.00  0.00     0.188 A 
ENDROOT
BRANCH   4   7
ATOM      7  O   UNL     1      32.240  44.991   7.385  1.00  0.00    -0.482 OA
BRANCH   7   8
ATOM      8  C   UNL     1      31.965  46.334   6.977  1.00  0.00     0.203 C 
ATOM      9  C   UNL     1      32.965  47.271   7.653  1.00  0.00     0.058 C 
BRANCH   8  10
ATOM     10  C   UNL     1      30.539  46.758   7.326  1.00  0.00     0.032 A 
ATOM     11  C   UNL     1      30.107  48.107   7.184  1.00  0.00     0.085 A 
ATOM     12  C   UNL     1      28.794  48.464   7.519  1.00  0.00     0.142 A 
ATOM     13  C   UNL     1      29.591  45.787   7.740  1.00  0.00     0.049 A 
ATOM     14  C   UNL     1      27.896  47.502   7.973  1.00  0.00     0.042 A 
ATOM     15  C   UNL     1      28.289  46.171   8.073  1.00  0.00     0.024 A 
ATOM     16  Cl  UNL     1      31.154  49.381   6.555  1.00  0.00    -0.081 Cl
ATOM     17  F   UNL     1      28.381  49.750   7.399  1.00  0.00    -0.205 F 
ATOM     18  Cl  UNL     1      29.973  44.067   7.839  1.00  0.00    -0.084 Cl
ENDBRANCH   8  10
ENDBRANCH   7   8
ENDBRANCH   4   7
BRANCH   6  19
ATOM     19  N   UNL     1      32.055  43.586  10.014  1.00  0.00    -0.379 N 
ATOM     20  H   UNL     1      31.149  43.911   9.614  1.00  0.00     0.158 HD
ATOM     21  H   UNL     1      31.150  43.915   9.608  1.00  0.00     0.158 HD
ENDBRANCH   6  19
BRANCH   3  22
ATOM     22  C   UNL     1      37.104  44.467   7.604  1.00  0.00     0.276 C 
ATOM     23  N   UNL     1      38.028  45.395   8.190  1.00  0.00    -0.321 N 
ATOM     24  O   UNL     1      37.422  43.840   6.555  1.00  0.00    -0.267 OA
ATOM     25  H   UNL     1      37.647  46.185   8.757  1.00  0.00     0.170 HD
BRANCH  23  26
ATOM     26  C   UNL     1      39.437  45.371   7.923  1.00  0.00     0.041 A 
ATOM     27  C   UNL     1      40.295  44.666   8.781  1.00  0.00     0.027 A 
ATOM     28  C   UNL     1      39.974  46.018   6.797  1.00  0.00     0.027 A 
ATOM     29  C   UNL     1      41.673  44.648   8.547  1.00  0.00     0.016 A 
ATOM     30  C   UNL     1      41.349  45.988   6.555  1.00  0.00     0.016 A 
ATOM     31  C   UNL     1      42.214  45.324   7.441  1.00  0.00     0.040 A 
BRANCH  31  32
ATOM     32  C   UNL     1      43.674  45.331   7.204  1.00  0.00     0.253 C 
ATOM     33  O   UNL     1      44.244  46.406   6.871  1.00  0.00    -0.269 OA
BRANCH  32  34
ATOM     34  N   UNL     1      44.455  44.131   7.356  1.00  0.00    -0.336 N 
ATOM     35  C   UNL     1      43.866  42.842   6.981  1.00  0.00     0.138 C 
ATOM     36  C   UNL     1      45.920  44.229   7.384  1.00  0.00     0.138 C 
ATOM     37  C   UNL     1      44.538  41.702   7.772  1.00  0.00     0.070 C 
ATOM     38  C   UNL     1      46.511  43.046   8.170  1.00  0.00     0.070 C 
ATOM     39  N   UNL     1      46.004  41.769   7.642  1.00  0.00    -0.308 NA
ATOM     40  C   UNL     1      44.035  40.338   7.295  1.00  0.00     0.026 C 
ATOM     41  C   UNL     1      48.039  43.063   8.112  1.00  0.00     0.026 C 
ATOM     42  H   UNL     1      46.261  41.692   6.627  1.00  0.00     0.123 HD
ENDBRANCH  32  34
ENDBRANCH  31  32
ENDBRANCH  23  26
ENDBRANCH   3  22
TORSDOF 8
ENDMDL
