MODEL 1
REMARK VINA RESULT:      -5.8      0.000      0.000
REMARK SMILES C[C@H]1Oc2cc(cnc2N)-c2c(nn(C)c2C#N)CN(C)C(=O)c2ccc(F)cc21
REMARK SMILES IDX 28 1 3 2 23 3 20 4 14 5 13 6 8 7 19 8 12 9 11 10 2 11 30 12
REMARK SMILES IDX 24 13 6 14 22 15 16 16 4 17 5 18 1 19 29 20 25 21 21 22 7 23
REMARK SMILES IDX 9 24 27 25 26 26 15 27 10 28 17 31 18 32
REMARK H PARENT 10 29 10 30
ROOT
ATOM      1  F   UNL     1      35.970  41.314   8.523  1.00  0.00    -0.207 F 
ATOM      2  O   UNL     1      35.130  46.461   9.502  1.00  0.00    -0.482 OA
ATOM      3  O   UNL     1      31.270  45.247  10.300  1.00  0.00    -0.269 OA
ATOM      4  N   UNL     1      30.673  45.050   8.148  1.00  0.00    -0.336 N 
ATOM      5  N   UNL     1      29.206  48.655   6.585  1.00  0.00    -0.257 N 
ATOM      6  N   UNL     1      29.334  47.330   6.556  1.00  0.00    -0.174 NA
ATOM      7  N   UNL     1      35.008  49.107   6.915  1.00  0.00    -0.235 NA
ATOM      8  C   UNL     1      31.111  45.612   6.846  1.00  0.00     0.178 C 
ATOM      9  C   UNL     1      30.631  47.026   6.736  1.00  0.00     0.091 A 
ATOM     10  C   UNL     1      31.358  48.209   6.921  1.00  0.00     0.045 A 
ATOM     11  C   UNL     1      34.363  45.574  10.334  1.00  0.00     0.201 C 
ATOM     12  C   UNL     1      34.084  44.231   9.615  1.00  0.00     0.008 A 
ATOM     13  C   UNL     1      32.818  43.944   9.051  1.00  0.00     0.047 A 
ATOM     14  C   UNL     1      32.778  48.321   7.281  1.00  0.00     0.009 A 
ATOM     15  C   UNL     1      31.661  44.835   9.179  1.00  0.00     0.254 C 
ATOM     16  C   UNL     1      30.421  49.216   6.754  1.00  0.00     0.146 A 
ATOM     17  C   UNL     1      34.619  47.384   8.566  1.00  0.00     0.162 A 
ATOM     18  C   UNL     1      33.250  47.546   8.361  1.00  0.00     0.061 A 
ATOM     19  C   UNL     1      35.114  45.363  11.670  1.00  0.00     0.058 C 
ATOM     20  C   UNL     1      35.100  43.234   9.555  1.00  0.00     0.047 A 
ATOM     21  C   UNL     1      32.648  42.763   8.329  1.00  0.00     0.017 A 
ATOM     22  C   UNL     1      29.339  44.437   8.270  1.00  0.00     0.147 C 
ATOM     23  C   UNL     1      33.676  49.180   6.621  1.00  0.00     0.122 A 
ATOM     24  C   UNL     1      35.497  48.222   7.855  1.00  0.00     0.166 A 
ATOM     25  C   UNL     1      34.897  42.051   8.856  1.00  0.00     0.123 A 
ATOM     26  C   UNL     1      33.650  41.761   8.328  1.00  0.00     0.040 A 
ATOM     27  C   UNL     1      27.886  49.322   6.555  1.00  0.00     0.175 C 
ENDROOT
BRANCH  24  28
ATOM     28  N   UNL     1      36.909  48.179   8.118  1.00  0.00    -0.381 N 
ATOM     29  H   UNL     1      37.336  47.387   8.688  1.00  0.00     0.158 HD
ATOM     30  H   UNL     1      37.494  49.000   7.848  1.00  0.00     0.158 HD
ENDBRANCH  24  28
BRANCH  16  31
ATOM     31  C   UNL     1      30.647  50.641   6.784  1.00  0.00     0.120 C 
ATOM     32  N   UNL     1      30.808  51.784   6.776  1.00  0.00    -0.191 NA
ENDBRANCH  16  31
TORSDOF 2
ENDMDL
MODEL 2
REMARK VINA RESULT:      -5.4      7.400      9.641
REMARK SMILES C[C@H]1Oc2cc(cnc2N)-c2c(nn(C)c2C#N)CN(C)C(=O)c2ccc(F)cc21
REMARK SMILES IDX 28 1 3 2 23 3 20 4 14 5 13 6 8 7 19 8 12 9 11 10 2 11 30 12
REMARK SMILES IDX 24 13 6 14 22 15 16 16 4 17 5 18 1 19 29 20 25 21 21 22 7 23
REMARK SMILES IDX 9 24 27 25 26 26 15 27 10 28 17 31 18 32
REMARK H PARENT 10 29 10 30
ROOT
ATOM      1  F   UNL     1      47.134  41.466   6.556  1.00  0.00    -0.207 F 
ATOM      2  O   UNL     1      43.842  44.928   8.868  1.00  0.00    -0.482 OA
ATOM      3  O   UNL     1      41.621  41.572   9.770  1.00  0.00    -0.269 OA
ATOM      4  N   UNL     1      40.746  41.354   7.718  1.00  0.00    -0.336 N 
ATOM      5  N   UNL     1      37.209  43.563   7.272  1.00  0.00    -0.257 N 
ATOM      6  N   UNL     1      38.038  42.590   6.902  1.00  0.00    -0.174 NA
ATOM      7  N   UNL     1      41.669  47.309   7.048  1.00  0.00    -0.235 NA
ATOM      8  C   UNL     1      40.477  42.235   6.555  1.00  0.00     0.178 C 
ATOM      9  C   UNL     1      39.284  43.091   6.853  1.00  0.00     0.091 A 
ATOM     10  C   UNL     1      39.254  44.436   7.242  1.00  0.00     0.045 A 
ATOM     11  C   UNL     1      43.918  43.657   9.535  1.00  0.00     0.201 C 
ATOM     12  C   UNL     1      44.270  42.522   8.542  1.00  0.00     0.008 A 
ATOM     13  C   UNL     1      43.285  41.621   8.071  1.00  0.00     0.047 A 
ATOM     14  C   UNL     1      40.410  45.316   7.457  1.00  0.00     0.009 A 
ATOM     15  C   UNL     1      41.897  41.628   8.546  1.00  0.00     0.254 C 
ATOM     16  C   UNL     1      37.908  44.705   7.437  1.00  0.00     0.146 A 
ATOM     17  C   UNL     1      42.702  45.486   8.253  1.00  0.00     0.162 A 
ATOM     18  C   UNL     1      41.472  44.833   8.251  1.00  0.00     0.061 A 
ATOM     19  C   UNL     1      44.950  43.753  10.684  1.00  0.00     0.058 C 
ATOM     20  C   UNL     1      45.619  42.338   8.123  1.00  0.00     0.047 A 
ATOM     21  C   UNL     1      43.632  40.679   7.103  1.00  0.00     0.017 A 
ATOM     22  C   UNL     1      40.049  40.061   7.834  1.00  0.00     0.147 C 
ATOM     23  C   UNL     1      40.496  46.619   6.933  1.00  0.00     0.122 A 
ATOM     24  C   UNL     1      42.772  46.768   7.678  1.00  0.00     0.166 A 
ATOM     25  C   UNL     1      45.947  41.372   7.180  1.00  0.00     0.123 A 
ATOM     26  C   UNL     1      44.987  40.476   6.741  1.00  0.00     0.040 A 
ATOM     27  C   UNL     1      35.778  43.317   7.557  1.00  0.00     0.175 C 
ENDROOT
BRANCH  24  28
ATOM     28  N   UNL     1      43.985  47.533   7.762  1.00  0.00    -0.381 N 
ATOM     29  H   UNL     1      44.900  47.078   8.060  1.00  0.00     0.158 HD
ATOM     30  H   UNL     1      43.933  48.570   7.645  1.00  0.00     0.158 HD
ENDBRANCH  24  28
BRANCH  16  31
ATOM     31  C   UNL     1      37.306  45.967   7.793  1.00  0.00     0.120 C 
ATOM     32  N   UNL     1      36.858  46.992   8.077  1.00  0.00    -0.191 NA
ENDBRANCH  16  31
TORSDOF 2
ENDMDL
MODEL 3
REMARK VINA RESULT:      -5.3      8.305     11.221
REMARK SMILES C[C@H]1Oc2cc(cnc2N)-c2c(nn(C)c2C#N)CN(C)C(=O)c2ccc(F)cc21
REMARK SMILES IDX 28 1 3 2 23 3 20 4 14 5 13 6 8 7 19 8 12 9 11 10 2 11 30 12
REMARK SMILES IDX 24 13 6 14 22 15 16 16 4 17 5 18 1 19 29 20 25 21 21 22 7 23
REMARK SMILES IDX 9 24 27 25 26 26 15 27 10 28 17 31 18 32
REMARK H PARENT 10 29 10 30
ROOT
ATOM      1  F   UNL     1      41.139  40.503   7.182  1.00  0.00    -0.207 F 
ATOM      2  O   UNL     1      44.719  43.954   9.037  1.00  0.00    -0.482 OA
ATOM      3  O   UNL     1      41.418  46.276   9.886  1.00  0.00    -0.269 OA
ATOM      4  N   UNL     1      41.113  46.969   7.776  1.00  0.00    -0.336 N 
ATOM      5  N   UNL     1      43.317  50.433   6.920  1.00  0.00    -0.257 N 
ATOM      6  N   UNL     1      42.324  49.582   6.669  1.00  0.00    -0.174 NA
ATOM      7  N   UNL     1      47.027  45.935   6.928  1.00  0.00    -0.235 NA
ATOM      8  C   UNL     1      41.942  47.125   6.556  1.00  0.00     0.178 C 
ATOM      9  C   UNL     1      42.816  48.332   6.709  1.00  0.00     0.091 A 
ATOM     10  C   UNL     1      44.178  48.384   7.034  1.00  0.00     0.045 A 
ATOM     11  C   UNL     1      43.478  43.949   9.764  1.00  0.00     0.201 C 
ATOM     12  C   UNL     1      42.298  43.521   8.857  1.00  0.00     0.008 A 
ATOM     13  C   UNL     1      41.382  44.469   8.341  1.00  0.00     0.047 A 
ATOM     14  C   UNL     1      45.060  47.244   7.311  1.00  0.00     0.009 A 
ATOM     15  C   UNL     1      41.417  45.893   8.690  1.00  0.00     0.254 C 
ATOM     16  C   UNL     1      44.462  49.740   7.096  1.00  0.00     0.146 A 
ATOM     17  C   UNL     1      45.254  45.030   8.300  1.00  0.00     0.162 A 
ATOM     18  C   UNL     1      44.608  46.261   8.217  1.00  0.00     0.061 A 
ATOM     19  C   UNL     1      43.620  43.022  10.994  1.00  0.00     0.058 C 
ATOM     20  C   UNL     1      42.088  42.142   8.568  1.00  0.00     0.047 A 
ATOM     21  C   UNL     1      40.396  44.045   7.450  1.00  0.00     0.017 A 
ATOM     22  C   UNL     1      39.830  47.685   7.887  1.00  0.00     0.147 C 
ATOM     23  C   UNL     1      46.338  47.101   6.739  1.00  0.00     0.122 A 
ATOM     24  C   UNL     1      46.508  44.898   7.677  1.00  0.00     0.166 A 
ATOM     25  C   UNL     1      41.080  41.740   7.702  1.00  0.00     0.123 A 
ATOM     26  C   UNL     1      40.169  42.666   7.219  1.00  0.00     0.040 A 
ATOM     27  C   UNL     1      43.091  51.885   7.088  1.00  0.00     0.175 C 
ENDROOT
BRANCH  24  28
ATOM     28  N   UNL     1      47.271  43.690   7.834  1.00  0.00    -0.381 N 
ATOM     29  H   UNL     1      46.957  42.929   8.509  1.00  0.00     0.158 HD
ATOM     30  H   UNL     1      48.203  43.621   7.367  1.00  0.00     0.158 HD
ENDBRANCH  24  28
BRANCH  16  31
ATOM     31  C   UNL     1      45.742  50.360   7.341  1.00  0.00     0.120 C 
ATOM     32  N   UNL     1      46.766  50.840   7.570  1.00  0.00    -0.191 NA
ENDBRANCH  16  31
TORSDOF 2
ENDMDL
MODEL 4
REMARK VINA RESULT:      -4.1      2.848      5.394
REMARK SMILES C[C@H]1Oc2cc(cnc2N)-c2c(nn(C)c2C#N)CN(C)C(=O)c2ccc(F)cc21
REMARK SMILES IDX 28 1 3 2 23 3 20 4 14 5 13 6 8 7 19 8 12 9 11 10 2 11 30 12
REMARK SMILES IDX 24 13 6 14 22 15 16 16 4 17 5 18 1 19 29 20 25 21 21 22 7 23
REMARK SMILES IDX 9 24 27 25 26 26 15 27 10 28 17 31 18 32
REMARK H PARENT 10 29 10 30
ROOT
ATOM      1  F   UNL     1      31.439  40.760   7.008  1.00  0.00    -0.207 F 
ATOM      2  O   UNL     1      36.146  42.508   8.727  1.00  0.00    -0.482 OA
ATOM      3  O   UNL     1      33.946  45.629  10.285  1.00  0.00    -0.269 OA
ATOM      4  N   UNL     1      33.706  46.699   8.330  1.00  0.00    -0.336 N 
ATOM      5  N   UNL     1      36.883  49.330   7.575  1.00  0.00    -0.257 N 
ATOM      6  N   UNL     1      35.639  48.905   7.369  1.00  0.00    -0.174 NA
ATOM      7  N   UNL     1      38.793  43.918   6.555  1.00  0.00    -0.235 NA
ATOM      8  C   UNL     1      34.422  46.760   7.032  1.00  0.00     0.178 C 
ATOM      9  C   UNL     1      35.670  47.572   7.198  1.00  0.00     0.091 A 
ATOM     10  C   UNL     1      36.989  47.122   7.334  1.00  0.00     0.045 A 
ATOM     11  C   UNL     1      35.053  42.800   9.614  1.00  0.00     0.201 C 
ATOM     12  C   UNL     1      33.719  42.931   8.837  1.00  0.00     0.008 A 
ATOM     13  C   UNL     1      33.144  44.195   8.565  1.00  0.00     0.047 A 
ATOM     14  C   UNL     1      37.444  45.726   7.354  1.00  0.00     0.009 A 
ATOM     15  C   UNL     1      33.702  45.456   9.064  1.00  0.00     0.254 C 
ATOM     16  C   UNL     1      37.729  48.281   7.509  1.00  0.00     0.146 A 
ATOM     17  C   UNL     1      36.951  43.447   8.049  1.00  0.00     0.162 A 
ATOM     18  C   UNL     1      36.765  44.820   8.197  1.00  0.00     0.061 A 
ATOM     19  C   UNL     1      34.978  41.700  10.699  1.00  0.00     0.058 C 
ATOM     20  C   UNL     1      33.021  41.760   8.426  1.00  0.00     0.047 A 
ATOM     21  C   UNL     1      31.995  44.263   7.778  1.00  0.00     0.017 A 
ATOM     22  C   UNL     1      32.765  47.773   8.699  1.00  0.00     0.147 C 
ATOM     23  C   UNL     1      38.535  45.259   6.598  1.00  0.00     0.122 A 
ATOM     24  C   UNL     1      38.019  43.007   7.247  1.00  0.00     0.166 A 
ATOM     25  C   UNL     1      31.860  41.852   7.668  1.00  0.00     0.123 A 
ATOM     26  C   UNL     1      31.285  43.088   7.425  1.00  0.00     0.040 A 
ATOM     27  C   UNL     1      37.190  50.732   7.936  1.00  0.00     0.175 C 
ENDROOT
BRANCH  24  28
ATOM     28  N   UNL     1      38.327  41.606   7.158  1.00  0.00    -0.381 N 
ATOM     29  H   UNL     1      38.976  41.143   7.864  1.00  0.00     0.158 HD
ATOM     30  H   UNL     1      38.004  41.074   6.319  1.00  0.00     0.158 HD
ENDBRANCH  24  28
BRANCH  16  31
ATOM     31  C   UNL     1      39.161  48.398   7.643  1.00  0.00     0.120 C 
ATOM     32  N   UNL     1      40.304  48.476   7.782  1.00  0.00    -0.191 NA
ENDBRANCH  16  31
TORSDOF 2
ENDMDL
MODEL 5
REMARK VINA RESULT:      -3.6      2.023      2.874
REMARK SMILES C[C@H]1Oc2cc(cnc2N)-c2c(nn(C)c2C#N)CN(C)C(=O)c2ccc(F)cc21
REMARK SMILES IDX 28 1 3 2 23 3 20 4 14 5 13 6 8 7 19 8 12 9 11 10 2 11 30 12
REMARK SMILES IDX 24 13 6 14 22 15 16 16 4 17 5 18 1 19 29 20 25 21 21 22 7 23
REMARK SMILES IDX 9 24 27 25 26 26 15 27 10 28 17 31 18 32
REMARK H PARENT 10 29 10 30
ROOT
ATOM      1  F   UNL     1      39.149  43.689   6.555  1.00  0.00    -0.207 F 
ATOM      2  O   UNL     1      35.905  47.397   8.527  1.00  0.00    -0.482 OA
ATOM      3  O   UNL     1      34.062  44.203  10.374  1.00  0.00    -0.269 OA
ATOM      4  N   UNL     1      32.970  43.516   8.542  1.00  0.00    -0.336 N 
ATOM      5  N   UNL     1      29.250  45.407   8.124  1.00  0.00    -0.257 N 
ATOM      6  N   UNL     1      30.100  44.419   7.853  1.00  0.00    -0.174 NA
ATOM      7  N   UNL     1      33.361  49.233   6.562  1.00  0.00    -0.235 NA
ATOM      8  C   UNL     1      32.501  44.118   7.269  1.00  0.00     0.178 C 
ATOM      9  C   UNL     1      31.291  44.958   7.541  1.00  0.00     0.091 A 
ATOM     10  C   UNL     1      31.207  46.352   7.650  1.00  0.00     0.045 A 
ATOM     11  C   UNL     1      36.154  46.300   9.422  1.00  0.00     0.201 C 
ATOM     12  C   UNL     1      36.469  44.999   8.643  1.00  0.00     0.008 A 
ATOM     13  C   UNL     1      35.505  43.973   8.498  1.00  0.00     0.047 A 
ATOM     14  C   UNL     1      32.311  47.312   7.528  1.00  0.00     0.009 A 
ATOM     15  C   UNL     1      34.187  44.013   9.138  1.00  0.00     0.254 C 
ATOM     16  C   UNL     1      29.877  46.591   7.960  1.00  0.00     0.146 A 
ATOM     17  C   UNL     1      34.662  47.757   7.966  1.00  0.00     0.162 A 
ATOM     18  C   UNL     1      33.492  47.060   8.257  1.00  0.00     0.061 A 
ATOM     19  C   UNL     1      37.304  46.685  10.382  1.00  0.00     0.058 C 
ATOM     20  C   UNL     1      37.769  44.797   8.097  1.00  0.00     0.047 A 
ATOM     21  C   UNL     1      35.806  42.866   7.704  1.00  0.00     0.017 A 
ATOM     22  C   UNL     1      32.389  42.244   9.008  1.00  0.00     0.147 C 
ATOM     23  C   UNL     1      32.237  48.479   6.743  1.00  0.00     0.122 A 
ATOM     24  C   UNL     1      34.568  48.891   7.139  1.00  0.00     0.166 A 
ATOM     25  C   UNL     1      38.055  43.672   7.335  1.00  0.00     0.123 A 
ATOM     26  C   UNL     1      37.120  42.657   7.217  1.00  0.00     0.040 A 
ATOM     27  C   UNL     1      27.885  45.157   8.637  1.00  0.00     0.175 C 
ENDROOT
BRANCH  24  28
ATOM     28  N   UNL     1      35.722  49.714   6.906  1.00  0.00    -0.381 N 
ATOM     29  H   UNL     1      36.364  49.534   6.076  1.00  0.00     0.158 HD
ATOM     30  H   UNL     1      35.991  50.416   7.631  1.00  0.00     0.158 HD
ENDBRANCH  24  28
BRANCH  16  31
ATOM     31  C   UNL     1      29.228  47.869   8.128  1.00  0.00     0.120 C 
ATOM     32  N   UNL     1      28.686  48.882   8.235  1.00  0.00    -0.191 NA
ENDBRANCH  16  31
TORSDOF 2
ENDMDL
MODEL 6
REMARK VINA RESULT:      -3.6      2.151      4.935
REMARK SMILES C[C@H]1Oc2cc(cnc2N)-c2c(nn(C)c2C#N)CN(C)C(=O)c2ccc(F)cc21
REMARK SMILES IDX 28 1 3 2 23 3 20 4 14 5 13 6 8 7 19 8 12 9 11 10 2 11 30 12
REMARK SMILES IDX 24 13 6 14 22 15 16 16 4 17 5 18 1 19 29 20 25 21 21 22 7 23
REMARK SMILES IDX 9 24 27 25 26 26 15 27 10 28 17 31 18 32
REMARK H PARENT 10 29 10 30
ROOT
ATOM      1  F   UNL     1      33.881  39.451  11.533  1.00  0.00    -0.207 F 
ATOM      2  O   UNL     1      31.309  42.759   8.277  1.00  0.00    -0.482 OA
ATOM      3  O   UNL     1      35.020  43.278   6.555  1.00  0.00    -0.269 OA
ATOM      4  N   UNL     1      35.790  44.653   8.148  1.00  0.00    -0.336 N 
ATOM      5  N   UNL     1      34.868  48.665   7.346  1.00  0.00    -0.257 N 
ATOM      6  N   UNL     1      35.581  47.727   7.966  1.00  0.00    -0.174 NA
ATOM      7  N   UNL     1      30.002  46.083   9.252  1.00  0.00    -0.235 NA
ATOM      8  C   UNL     1      35.211  45.574   9.158  1.00  0.00     0.178 C 
ATOM      9  C   UNL     1      34.732  46.816   8.472  1.00  0.00     0.091 A 
ATOM     10  C   UNL     1      33.421  47.170   8.131  1.00  0.00     0.045 A 
ATOM     11  C   UNL     1      32.385  42.041   7.652  1.00  0.00     0.201 C 
ATOM     12  C   UNL     1      33.487  41.674   8.677  1.00  0.00     0.008 A 
ATOM     13  C   UNL     1      34.705  42.392   8.739  1.00  0.00     0.047 A 
ATOM     14  C   UNL     1      32.206  46.380   8.369  1.00  0.00     0.009 A 
ATOM     15  C   UNL     1      35.058  43.459   7.798  1.00  0.00     0.254 C 
ATOM     16  C   UNL     1      33.554  48.382   7.472  1.00  0.00     0.146 A 
ATOM     17  C   UNL     1      31.224  44.156   8.455  1.00  0.00     0.162 A 
ATOM     18  C   UNL     1      32.218  45.019   7.998  1.00  0.00     0.061 A 
ATOM     19  C   UNL     1      31.811  40.784   6.954  1.00  0.00     0.058 C 
ATOM     20  C   UNL     1      33.304  40.562   9.548  1.00  0.00     0.047 A 
ATOM     21  C   UNL     1      35.623  42.086   9.744  1.00  0.00     0.017 A 
ATOM     22  C   UNL     1      37.204  44.790   7.758  1.00  0.00     0.147 C 
ATOM     23  C   UNL     1      31.029  46.921   8.920  1.00  0.00     0.122 A 
ATOM     24  C   UNL     1      30.080  44.720   9.048  1.00  0.00     0.166 A 
ATOM     25  C   UNL     1      34.246  40.257  10.522  1.00  0.00     0.123 A 
ATOM     26  C   UNL     1      35.448  40.944  10.564  1.00  0.00     0.040 A 
ATOM     27  C   UNL     1      35.500  49.747   6.559  1.00  0.00     0.175 C 
ENDROOT
BRANCH  24  28
ATOM     28  N   UNL     1      28.974  43.884   9.425  1.00  0.00    -0.381 N 
ATOM     29  H   UNL     1      28.851  43.561  10.432  1.00  0.00     0.158 HD
ATOM     30  H   UNL     1      28.360  43.496   8.675  1.00  0.00     0.158 HD
ENDBRANCH  24  28
BRANCH  16  31
ATOM     31  C   UNL     1      32.503  49.223   6.954  1.00  0.00     0.120 C 
ATOM     32  N   UNL     1      31.660  49.914   6.573  1.00  0.00    -0.191 NA
ENDBRANCH  16  31
TORSDOF 2
ENDMDL
