MODEL 1
REMARK VINA RESULT:      -8.0      0.000      0.000
REMARK SMILES CN1CCN(c2ccc(C(=O)Nc3n[nH]c4ccc(Cc5cc(F)cc(F)c5)cc34)c(NC3CCOCC3)c2)CC1
REMARK SMILES IDX 17 1 16 2 15 3 14 4 13 5 30 6 29 7 19 8 18 9 20 11 21 12
REMARK SMILES IDX 22 13 28 14 23 15 26 16 25 17 24 18 27 19 12 20 10 21 11 23
REMARK SMILES IDX 9 24 8 25 31 26 7 27 39 28 6 29 32 30 33 32 34 33 38 34
REMARK SMILES IDX 35 35 37 36 36 37 5 38 4 39 40 40 3 41 41 42 2 43 1 44
REMARK H PARENT 15 10 12 22 32 31
ROOT
ATOM      1  C   UNL     1      38.253  42.508   6.793  1.00  0.00     0.029 A 
ATOM      2  C   UNL     1      39.615  42.788   6.845  1.00  0.00     0.067 A 
ATOM      3  N   UNL     1      40.648  41.933   6.763  1.00  0.00    -0.276 N 
ATOM      4  N   UNL     1      41.780  42.631   6.782  1.00  0.00    -0.156 NA
ATOM      5  C   UNL     1      41.455  43.940   6.887  1.00  0.00     0.162 A 
ATOM      6  C   UNL     1      40.084  44.067   6.926  1.00  0.00     0.044 A 
ATOM      7  C   UNL     1      39.234  45.170   6.950  1.00  0.00     0.018 A 
ATOM      8  C   UNL     1      37.844  44.930   6.909  1.00  0.00    -0.043 A 
ATOM      9  C   UNL     1      37.360  43.595   6.826  1.00  0.00     0.006 A 
ATOM     10  H   UNL     1      40.598  40.896   6.671  1.00  0.00     0.190 HD
ENDROOT
BRANCH   8  11
ATOM     11  C   UNL     1      36.886  46.089   6.857  1.00  0.00     0.071 C 
BRANCH  11  12
ATOM     12  C   UNL     1      35.847  45.947   7.937  1.00  0.00    -0.038 A 
ATOM     13  C   UNL     1      34.489  45.803   7.604  1.00  0.00     0.043 A 
ATOM     14  C   UNL     1      36.233  45.890   9.286  1.00  0.00     0.043 A 
ATOM     15  C   UNL     1      33.532  45.627   8.609  1.00  0.00     0.126 A 
ATOM     16  C   UNL     1      35.273  45.709  10.287  1.00  0.00     0.126 A 
ATOM     17  C   UNL     1      33.923  45.577   9.949  1.00  0.00     0.078 A 
ATOM     18  F   UNL     1      32.220  45.502   8.282  1.00  0.00    -0.207 F 
ATOM     19  F   UNL     1      35.653  45.661  11.587  1.00  0.00    -0.207 F 
ENDBRANCH  11  12
ENDBRANCH   8  11
BRANCH   5  20
ATOM     20  N   UNL     1      42.394  45.023   6.885  1.00  0.00    -0.304 N 
ATOM     21  C   UNL     1      42.703  45.796   8.054  1.00  0.00     0.258 C 
ATOM     22  H   UNL     1      42.998  45.150   6.040  1.00  0.00     0.171 HD
ATOM     23  O   UNL     1      42.001  45.695   9.098  1.00  0.00    -0.269 OA
BRANCH  21  24
ATOM     24  C   UNL     1      43.887  46.667   8.063  1.00  0.00     0.063 A 
ATOM     25  C   UNL     1      43.949  47.721   7.139  1.00  0.00     0.018 A 
ATOM     26  C   UNL     1      44.928  46.503   9.009  1.00  0.00     0.049 A 
ATOM     27  C   UNL     1      44.995  48.644   7.184  1.00  0.00     0.027 A 
ATOM     28  C   UNL     1      45.960  47.454   9.058  1.00  0.00     0.052 A 
ATOM     29  C   UNL     1      46.001  48.526   8.150  1.00  0.00     0.039 A 
BRANCH  26  30
ATOM     30  N   UNL     1      44.990  45.382   9.915  1.00  0.00    -0.381 N 
ATOM     31  H   UNL     1      44.973  45.609  10.936  1.00  0.00     0.160 HD
BRANCH  30  32
ATOM     32  C   UNL     1      45.401  44.026   9.512  1.00  0.00     0.083 C 
ATOM     33  C   UNL     1      44.237  43.028   9.642  1.00  0.00     0.053 C 
ATOM     34  C   UNL     1      45.922  44.025   8.064  1.00  0.00     0.053 C 
ATOM     35  C   UNL     1      44.636  41.670   9.049  1.00  0.00     0.162 C 
ATOM     36  C   UNL     1      46.193  42.589   7.599  1.00  0.00     0.162 C 
ATOM     37  O   UNL     1      45.024  41.802   7.693  1.00  0.00    -0.381 OA
ENDBRANCH  30  32
ENDBRANCH  26  30
BRANCH  29  38
ATOM     38  N   UNL     1      47.050  49.507   8.234  1.00  0.00    -0.369 N 
ATOM     39  C   UNL     1      47.530  49.989   9.531  1.00  0.00     0.132 C 
ATOM     40  C   UNL     1      47.635  50.113   7.034  1.00  0.00     0.132 C 
ATOM     41  C   UNL     1      47.430  51.516   9.568  1.00  0.00     0.105 C 
ATOM     42  C   UNL     1      47.525  51.636   7.138  1.00  0.00     0.105 C 
ATOM     43  N   UNL     1      48.126  52.106   8.406  1.00  0.00    -0.303 NA
ATOM     44  C   UNL     1      48.061  53.574   8.475  1.00  0.00     0.105 C 
ENDBRANCH  29  38
ENDBRANCH  21  24
ENDBRANCH   5  20
TORSDOF 7
ENDMDL
MODEL 2
REMARK VINA RESULT:      -5.0      1.594      2.323
REMARK SMILES CN1CCN(c2ccc(C(=O)Nc3n[nH]c4ccc(Cc5cc(F)cc(F)c5)cc34)c(NC3CCOCC3)c2)CC1
REMARK SMILES IDX 17 1 16 2 15 3 14 4 13 5 30 6 29 7 19 8 18 9 20 11 21 12
REMARK SMILES IDX 22 13 28 14 23 15 26 16 25 17 24 18 27 19 12 20 10 21 11 23
REMARK SMILES IDX 9 24 8 25 31 26 7 27 39 28 6 29 32 30 33 32 34 33 38 34
REMARK SMILES IDX 35 35 37 36 36 37 5 38 4 39 40 40 3 41 41 42 2 43 1 44
REMARK H PARENT 15 10 12 22 32 31
ROOT
ATOM      1  C   UNL     1      36.798  42.424   7.286  1.00  0.00     0.029 A 
ATOM      2  C   UNL     1      38.144  42.771   7.231  1.00  0.00     0.067 A 
ATOM      3  N   UNL     1      39.216  41.961   7.205  1.00  0.00    -0.276 N 
ATOM      4  N   UNL     1      40.310  42.707   7.076  1.00  0.00    -0.156 NA
ATOM      5  C   UNL     1      39.921  44.003   7.029  1.00  0.00     0.162 A 
ATOM      6  C   UNL     1      38.549  44.070   7.123  1.00  0.00     0.044 A 
ATOM      7  C   UNL     1      37.644  45.126   7.050  1.00  0.00     0.018 A 
ATOM      8  C   UNL     1      36.268  44.818   7.113  1.00  0.00    -0.043 A 
ATOM      9  C   UNL     1      35.851  43.463   7.227  1.00  0.00     0.006 A 
ATOM     10  H   UNL     1      39.217  40.920   7.250  1.00  0.00     0.190 HD
ENDROOT
BRANCH   8  11
ATOM     11  C   UNL     1      35.249  45.916   6.962  1.00  0.00     0.071 C 
BRANCH  11  12
ATOM     12  C   UNL     1      33.927  45.471   7.529  1.00  0.00    -0.038 A 
ATOM     13  C   UNL     1      33.881  44.531   8.573  1.00  0.00     0.043 A 
ATOM     14  C   UNL     1      32.730  46.043   7.067  1.00  0.00     0.043 A 
ATOM     15  C   UNL     1      32.653  44.153   9.128  1.00  0.00     0.126 A 
ATOM     16  C   UNL     1      31.506  45.666   7.628  1.00  0.00     0.126 A 
ATOM     17  C   UNL     1      31.467  44.722   8.657  1.00  0.00     0.078 A 
ATOM     18  F   UNL     1      32.614  43.233  10.125  1.00  0.00    -0.207 F 
ATOM     19  F   UNL     1      30.355  46.218   7.172  1.00  0.00    -0.207 F 
ENDBRANCH  11  12
ENDBRANCH   8  11
BRANCH   5  20
ATOM     20  N   UNL     1      40.801  45.118   6.840  1.00  0.00    -0.304 N 
ATOM     21  C   UNL     1      41.550  45.717   7.907  1.00  0.00     0.258 C 
ATOM     22  H   UNL     1      41.031  45.402   5.860  1.00  0.00     0.171 HD
ATOM     23  O   UNL     1      41.307  45.423   9.111  1.00  0.00    -0.269 OA
BRANCH  21  24
ATOM     24  C   UNL     1      42.657  46.634   7.599  1.00  0.00     0.063 A 
ATOM     25  C   UNL     1      42.349  47.918   7.126  1.00  0.00     0.018 A 
ATOM     26  C   UNL     1      44.008  46.274   7.822  1.00  0.00     0.049 A 
ATOM     27  C   UNL     1      43.358  48.862   6.930  1.00  0.00     0.027 A 
ATOM     28  C   UNL     1      45.009  47.243   7.645  1.00  0.00     0.052 A 
ATOM     29  C   UNL     1      44.693  48.538   7.200  1.00  0.00     0.039 A 
BRANCH  26  30
ATOM     30  N   UNL     1      44.409  44.941   8.201  1.00  0.00    -0.381 N 
ATOM     31  H   UNL     1      43.930  44.532   9.037  1.00  0.00     0.160 HD
BRANCH  30  32
ATOM     32  C   UNL     1      45.636  44.285   7.714  1.00  0.00     0.083 C 
ATOM     33  C   UNL     1      46.753  44.337   8.771  1.00  0.00     0.053 C 
ATOM     34  C   UNL     1      45.353  42.822   7.333  1.00  0.00     0.053 C 
ATOM     35  C   UNL     1      47.952  43.495   8.314  1.00  0.00     0.162 C 
ATOM     36  C   UNL     1      46.662  42.103   6.984  1.00  0.00     0.162 C 
ATOM     37  O   UNL     1      47.567  42.155   8.068  1.00  0.00    -0.381 OA
ENDBRANCH  30  32
ENDBRANCH  26  30
BRANCH  29  38
ATOM     38  N   UNL     1      45.728  49.527   7.052  1.00  0.00    -0.369 N 
ATOM     39  C   UNL     1      47.136  49.178   7.252  1.00  0.00     0.132 C 
ATOM     40  C   UNL     1      45.417  50.929   6.762  1.00  0.00     0.132 C 
ATOM     41  C   UNL     1      47.741  50.116   8.301  1.00  0.00     0.105 C 
ATOM     42  C   UNL     1      46.064  51.816   7.829  1.00  0.00     0.105 C 
ATOM     43  N   UNL     1      47.512  51.526   7.925  1.00  0.00    -0.303 NA
ATOM     44  C   UNL     1      48.134  52.417   8.916  1.00  0.00     0.105 C 
ENDBRANCH  29  38
ENDBRANCH  21  24
ENDBRANCH   5  20
TORSDOF 7
ENDMDL
