68165256
     RDKit          3D

 79 83  0  0  0  0  0  0  0  0999 V2000
    6.6248   -0.3364    2.9856 Cl  0  0  0  0  0  0  0  0  0  0  0  0
    8.0639   -1.2115   -0.7830 P   0  0  0  0  0  0  0  0  0  0  0  0
    0.5454    0.7227   -3.0766 O   0  0  0  0  0  0  0  0  0  0  0  0
    6.9059   -0.6023   -1.5432 O   0  0  0  0  0  0  0  0  0  0  0  0
   -6.8621    0.5758    0.5828 N   0  0  0  0  0  0  0  0  0  0  0  0
   -3.2987   -0.9919   -0.3950 N   0  0  0  0  0  0  0  0  0  0  0  0
   -9.7078    0.2088    0.3646 N   0  0  0  0  0  0  0  0  0  0  0  0
    2.1768    0.7875   -0.8241 N   0  0  0  0  0  0  0  0  0  0  0  0
    4.4782    1.0794   -0.1468 N   0  0  0  0  0  0  0  0  0  0  0  0
    3.1546   -0.4541    1.0351 N   0  0  0  0  0  0  0  0  0  0  0  0
    6.7951    1.4997    0.3216 N   0  0  0  0  0  0  0  0  0  0  0  0
   -5.4071    0.8269    0.3666 C   0  0  0  0  0  0  0  0  0  0  0  0
   -4.9224    0.6780   -1.1198 C   0  0  0  0  0  0  0  0  0  0  0  0
   -4.5461    0.0660    1.4266 C   0  0  0  0  0  0  0  0  0  0  0  0
   -4.3095   -0.6916   -1.4252 C   0  0  0  0  0  0  0  0  0  0  0  0
   -3.9336   -1.2444    0.9118 C   0  0  0  0  0  0  0  0  0  0  0  0
   -7.4017   -0.6554   -0.0214 C   0  0  0  0  0  0  0  0  0  0  0  0
   -7.7089    1.7173    0.1896 C   0  0  0  0  0  0  0  0  0  0  0  0
   -8.7827   -0.9301    0.5765 C   0  0  0  0  0  0  0  0  0  0  0  0
   -9.1296    1.5221    0.7355 C   0  0  0  0  0  0  0  0  0  0  0  0
   -1.9095   -0.5349   -0.5057 C   0  0  0  0  0  0  0  0  0  0  0  0
  -10.9575   -0.0072    1.1160 C   0  0  0  0  0  0  0  0  0  0  0  0
   -1.3453   -0.1416   -1.7464 C   0  0  0  0  0  0  0  0  0  0  0  0
   -1.0692   -0.4447    0.6326 C   0  0  0  0  0  0  0  0  0  0  0  0
   -0.0117    0.2995   -1.8518 C   0  0  0  0  0  0  0  0  0  0  0  0
    0.2525   -0.0174    0.5333 C   0  0  0  0  0  0  0  0  0  0  0  0
    0.8174    0.3191   -0.7071 C   0  0  0  0  0  0  0  0  0  0  0  0
    3.2750    0.4659    0.0440 C   0  0  0  0  0  0  0  0  0  0  0  0
   -0.1843    0.9763   -4.2736 C   0  0  0  0  0  0  0  0  0  0  0  0
    8.7623   -0.0545    0.4289 C   0  0  0  0  0  0  0  0  0  0  0  0
    8.0907    1.1405    0.8225 C   0  0  0  0  0  0  0  0  0  0  0  0
    5.5604    0.8318    0.6380 C   0  0  0  0  0  0  0  0  0  0  0  0
    7.4795   -2.7042    0.0732 C   0  0  0  0  0  0  0  0  0  0  0  0
    9.3246   -1.6962   -2.0008 C   0  0  0  0  0  0  0  0  0  0  0  0
   10.0046   -0.3584    1.0099 C   0  0  0  0  0  0  0  0  0  0  0  0
    5.4046   -0.0587    1.7344 C   0  0  0  0  0  0  0  0  0  0  0  0
    4.1789   -0.7170    1.8810 C   0  0  0  0  0  0  0  0  0  0  0  0
    8.7200    2.0211    1.7104 C   0  0  0  0  0  0  0  0  0  0  0  0
   10.6064    0.5274    1.9075 C   0  0  0  0  0  0  0  0  0  0  0  0
    9.9687    1.7193    2.2502 C   0  0  0  0  0  0  0  0  0  0  0  0
   -5.2131    1.9047    0.6086 H   0  0  0  0  0  0  0  0  0  0  0  0
   -5.7370    0.9029   -1.8436 H   0  0  0  0  0  0  0  0  0  0  0  0
   -4.1327    1.4416   -1.3029 H   0  0  0  0  0  0  0  0  0  0  0  0
   -3.7115    0.7256    1.7452 H   0  0  0  0  0  0  0  0  0  0  0  0
   -5.1495   -0.1456    2.3400 H   0  0  0  0  0  0  0  0  0  0  0  0
   -5.1033   -1.4681   -1.4178 H   0  0  0  0  0  0  0  0  0  0  0  0
   -3.9143   -0.7363   -2.4566 H   0  0  0  0  0  0  0  0  0  0  0  0
   -4.7164   -2.0185    0.8090 H   0  0  0  0  0  0  0  0  0  0  0  0
   -3.2414   -1.6886    1.6554 H   0  0  0  0  0  0  0  0  0  0  0  0
   -6.7601   -1.5305    0.2142 H   0  0  0  0  0  0  0  0  0  0  0  0
   -7.4880   -0.5665   -1.1322 H   0  0  0  0  0  0  0  0  0  0  0  0
   -7.7352    1.8420   -0.9211 H   0  0  0  0  0  0  0  0  0  0  0  0
   -7.3165    2.6619    0.6315 H   0  0  0  0  0  0  0  0  0  0  0  0
   -8.6546   -1.1547    1.6625 H   0  0  0  0  0  0  0  0  0  0  0  0
   -9.2036   -1.8390    0.0888 H   0  0  0  0  0  0  0  0  0  0  0  0
   -9.7688    2.3216    0.2986 H   0  0  0  0  0  0  0  0  0  0  0  0
   -9.1204    1.6692    1.8436 H   0  0  0  0  0  0  0  0  0  0  0  0
  -10.7712    0.0263    2.2124 H   0  0  0  0  0  0  0  0  0  0  0  0
  -11.4080   -0.9969    0.8830 H   0  0  0  0  0  0  0  0  0  0  0  0
  -11.6987    0.7827    0.8678 H   0  0  0  0  0  0  0  0  0  0  0  0
   -1.9321   -0.1723   -2.6425 H   0  0  0  0  0  0  0  0  0  0  0  0
   -1.4174   -0.6684    1.6238 H   0  0  0  0  0  0  0  0  0  0  0  0
    0.8201    0.0737    1.4533 H   0  0  0  0  0  0  0  0  0  0  0  0
    2.4157    1.3951   -1.6423 H   0  0  0  0  0  0  0  0  0  0  0  0
    0.5213    1.3533   -5.0467 H   0  0  0  0  0  0  0  0  0  0  0  0
   -0.6537    0.0415   -4.6409 H   0  0  0  0  0  0  0  0  0  0  0  0
   -0.9495    1.7620   -4.1002 H   0  0  0  0  0  0  0  0  0  0  0  0
    6.7397    2.3030   -0.3593 H   0  0  0  0  0  0  0  0  0  0  0  0
    6.6605   -2.4407    0.7712 H   0  0  0  0  0  0  0  0  0  0  0  0
    7.0983   -3.4381   -0.6686 H   0  0  0  0  0  0  0  0  0  0  0  0
    8.3115   -3.1533    0.6528 H   0  0  0  0  0  0  0  0  0  0  0  0
    9.6670   -0.7934   -2.5466 H   0  0  0  0  0  0  0  0  0  0  0  0
    8.8774   -2.4143   -2.7198 H   0  0  0  0  0  0  0  0  0  0  0  0
   10.1878   -2.1746   -1.4958 H   0  0  0  0  0  0  0  0  0  0  0  0
   10.5107   -1.2814    0.7595 H   0  0  0  0  0  0  0  0  0  0  0  0
    8.2320    2.9551    1.9885 H   0  0  0  0  0  0  0  0  0  0  0  0
    4.0384   -1.4245    2.6844 H   0  0  0  0  0  0  0  0  0  0  0  0
   11.5654    0.2790    2.3434 H   0  0  0  0  0  0  0  0  0  0  0  0
   10.4485    2.4016    2.9416 H   0  0  0  0  0  0  0  0  0  0  0  0
  1 36  1  0
  2  4  2  0
  2 30  1  0
  2 33  1  0
  2 34  1  0
  3 25  1  0
  3 29  1  0
  5 12  1  0
  5 17  1  0
  5 18  1  0
  6 15  1  0
  6 16  1  0
  6 21  1  0
  7 19  1  0
  7 20  1  0
  7 22  1  0
  8 27  1  0
  8 28  1  0
  8 64  1  0
  9 28  2  0
  9 32  1  0
 10 28  1  0
 10 37  2  0
 11 31  1  0
 11 32  1  0
 11 68  1  0
 12 13  1  0
 12 14  1  0
 12 41  1  0
 13 15  1  0
 13 42  1  0
 13 43  1  0
 14 16  1  0
 14 44  1  0
 14 45  1  0
 15 46  1  0
 15 47  1  0
 16 48  1  0
 16 49  1  0
 17 19  1  0
 17 50  1  0
 17 51  1  0
 18 20  1  0
 18 52  1  0
 18 53  1  0
 19 54  1  0
 19 55  1  0
 20 56  1  0
 20 57  1  0
 21 23  2  0
 21 24  1  0
 22 58  1  0
 22 59  1  0
 22 60  1  0
 23 25  1  0
 23 61  1  0
 24 26  2  0
 24 62  1  0
 25 27  2  0
 26 27  1  0
 26 63  1  0
 29 65  1  0
 29 66  1  0
 29 67  1  0
 30 31  2  0
 30 35  1  0
 31 38  1  0
 32 36  2  0
 33 69  1  0
 33 70  1  0
 33 71  1  0
 34 72  1  0
 34 73  1  0
 34 74  1  0
 35 39  2  0
 35 75  1  0
 36 37  1  0
 37 77  1  0
 38 40  2  0
 38 76  1  0
 39 40  1  0
 39 78  1  0
 40 79  1  0
M  END
>  <PUBCHEM_COMPOUND_CID>  (1) 
68165256

>  <PUBCHEM_COMPOUND_CANONICALIZED>  (1) 
1

>  <PUBCHEM_CACTVS_COMPLEXITY>  (1) 
835

>  <PUBCHEM_CACTVS_HBOND_ACCEPTOR>  (1) 
9

>  <PUBCHEM_CACTVS_HBOND_DONOR>  (1) 
2

>  <PUBCHEM_CACTVS_ROTATABLE_BOND>  (1) 
8

>  <PUBCHEM_CACTVS_SUBSKEYS>  (1) 
AAADcfB7sAIEAAAAAAAAAAAAAAAAAAAAAAA8eLECAAAAAAAB0AAAHgoQACAACC7BkiY/9pfIFCCgQDZnZACCiCkxI6AJ2CAvbJiObuLE+dvVNChu0BvY6CeQUAMAAACAAgAAEAAAAQAEAAAgAAAAAAAAAA==

>  <PUBCHEM_IUPAC_OPENEYE_NAME>  (1) 
5-chloro-N4-(2-dimethylphosphorylphenyl)-N2-[2-methoxy-4-[4-(4-methylpiperazin-1-yl)-1-piperidyl]phenyl]pyrimidine-2,4-diamine

>  <PUBCHEM_IUPAC_CAS_NAME>  (1) 
5-chloro-N4-(2-dimethylphosphorylphenyl)-N2-[2-methoxy-4-[4-(4-methyl-1-piperazinyl)-1-piperidinyl]phenyl]pyrimidine-2,4-diamine

>  <PUBCHEM_IUPAC_NAME_MARKUP>  (1) 
5-chloro-4-<I>N</I>-(2-dimethylphosphorylphenyl)-2-<I>N</I>-[2-methoxy-4-[4-(4-methylpiperazin-1-yl)piperidin-1-yl]phenyl]pyrimidine-2,4-diamine

>  <PUBCHEM_IUPAC_NAME>  (1) 
5-chloro-4-N-(2-dimethylphosphorylphenyl)-2-N-[2-methoxy-4-[4-(4-methylpiperazin-1-yl)piperidin-1-yl]phenyl]pyrimidine-2,4-diamine

>  <PUBCHEM_IUPAC_SYSTEMATIC_NAME>  (1) 
5-chloranyl-N4-(2-dimethylphosphorylphenyl)-N2-[2-methoxy-4-[4-(4-methylpiperazin-1-yl)piperidin-1-yl]phenyl]pyrimidine-2,4-diamine

>  <PUBCHEM_IUPAC_TRADITIONAL_NAME>  (1) 
[5-chloro-4-(2-dimethylphosphorylanilino)pyrimidin-2-yl]-[2-methoxy-4-[4-(4-methylpiperazino)piperidino]phenyl]amine

>  <PUBCHEM_IUPAC_INCHI>  (1) 
InChI=1S/C29H39ClN7O2P/c1-35-15-17-37(18-16-35)21-11-13-36(14-12-21)22-9-10-24(26(19-22)39-2)33-29-31-20-23(30)28(34-29)32-25-7-5-6-8-27(25)40(3,4)38/h5-10,19-21H,11-18H2,1-4H3,(H2,31,32,33,34)

>  <PUBCHEM_IUPAC_INCHIKEY>  (1) 
AILRADAXUVEEIR-UHFFFAOYSA-N

>  <PUBCHEM_XLOGP3_AA>  (1) 
4.6

>  <PUBCHEM_EXACT_MASS>  (1) 
583.2591382

>  <PUBCHEM_MOLECULAR_FORMULA>  (1) 
C29H39ClN7O2P

>  <PUBCHEM_MOLECULAR_WEIGHT>  (1) 
584.1

>  <PUBCHEM_SMILES>  (1) 
CN1CCN(CC1)C2CCN(CC2)C3=CC(=C(C=C3)NC4=NC=C(C(=N4)NC5=CC=CC=C5P(=O)(C)C)Cl)OC

>  <PUBCHEM_OPENEYE_CAN_SMILES>  (1) 
CN1CCN(CC1)C2CCN(CC2)C3=CC(=C(C=C3)NC4=NC=C(C(=N4)NC5=CC=CC=C5P(=O)(C)C)Cl)OC

>  <PUBCHEM_OPENEYE_ISO_SMILES>  (1) 
CN1CCN(CC1)C2CCN(CC2)C3=CC(=C(C=C3)NC4=NC=C(C(=N4)NC5=CC=CC=C5P(=O)(C)C)Cl)OC

>  <PUBCHEM_CACTVS_TPSA>  (1) 
85.9

>  <PUBCHEM_MONOISOTOPIC_WEIGHT>  (1) 
583.2591382

>  <PUBCHEM_TOTAL_CHARGE>  (1) 
0

>  <PUBCHEM_HEAVY_ATOM_COUNT>  (1) 
40

>  <PUBCHEM_ATOM_DEF_STEREO_COUNT>  (1) 
0

>  <PUBCHEM_ATOM_UDEF_STEREO_COUNT>  (1) 
0

>  <PUBCHEM_BOND_DEF_STEREO_COUNT>  (1) 
0

>  <PUBCHEM_BOND_UDEF_STEREO_COUNT>  (1) 
0

>  <PUBCHEM_ISOTOPIC_ATOM_COUNT>  (1) 
0

>  <PUBCHEM_COMPONENT_COUNT>  (1) 
1

>  <PUBCHEM_CACTVS_TAUTO_COUNT>  (1) 
-1

>  <PUBCHEM_COORDINATE_TYPE>  (1) 
1
5
255

>  <PUBCHEM_BONDANNOTATIONS>  (1) 
10  28  8
10  37  8
21  23  8
21  24  8
23  25  8
24  26  8
25  27  8
26  27  8
30  31  8
30  35  8
31  38  8
32  36  8
35  39  8
36  37  8
38  40  8
39  40  8
9  28  8
9  32  8

$$$$
