56960363
     RDKit          3D

 65 68  0  0  1  0  0  0  0  0999 V2000
    5.9871    2.4728    1.1455 Cl  0  0  0  0  0  0  0  0  0  0  0  0
    9.8253   -1.3698   -0.1898 Cl  0  0  0  0  0  0  0  0  0  0  0  0
    7.1413    3.8101   -1.1830 F   0  0  0  0  0  0  0  0  0  0  0  0
   -5.8007   -2.4408    1.4208 O   0  0  0  0  0  0  0  0  0  0  0  0
    5.9583   -0.3564    1.6445 O   0  0  0  0  0  0  0  0  0  0  0  0
    0.8837   -0.3278    1.6387 O   0  0  0  0  0  0  0  0  0  0  0  0
   -6.2940   -0.4512    0.3021 N   0  0  0  0  0  0  0  0  0  0  0  0
   -8.1102    1.5587   -0.5471 N   0  0  0  0  0  0  0  0  0  0  0  0
    0.2112   -1.0465   -0.4796 N   0  0  0  0  0  0  0  0  0  0  0  0
    2.9702   -1.8011   -0.8749 N   0  0  0  0  0  0  0  0  0  0  0  0
    4.2394   -2.0779   -1.1702 N   0  0  0  0  0  0  0  0  0  0  0  0
    6.6004   -1.9965   -0.7666 N   0  0  0  0  0  0  0  0  0  0  0  0
   -8.3009    0.1669   -0.9901 C   0  0  1  0  0  0  0  0  0  0  0  0
   -6.6762    1.8697   -0.4275 C   0  0  2  0  0  0  0  0  0  0  0  0
   -7.6860   -0.8190    0.0229 C   0  0  0  0  0  0  0  0  0  0  0  0
   -6.0093    0.9549    0.6141 C   0  0  0  0  0  0  0  0  0  0  0  0
   -9.7924   -0.1150   -1.1877 C   0  0  0  0  0  0  0  0  0  0  0  0
   -6.4920    3.3425   -0.0561 C   0  0  0  0  0  0  0  0  0  0  0  0
   -5.3744   -1.4676    0.7404 C   0  0  0  0  0  0  0  0  0  0  0  0
   -3.9339   -1.3853    0.4123 C   0  0  0  0  0  0  0  0  0  0  0  0
   -3.5038   -0.7484   -0.7643 C   0  0  0  0  0  0  0  0  0  0  0  0
   -2.9784   -1.9523    1.2713 C   0  0  0  0  0  0  0  0  0  0  0  0
   -2.1406   -0.6504   -1.0568 C   0  0  0  0  0  0  0  0  0  0  0  0
   -1.6146   -1.8411    0.9856 C   0  0  0  0  0  0  0  0  0  0  0  0
   -1.1852   -1.1727   -0.1730 C   0  0  0  0  0  0  0  0  0  0  0  0
    7.3810   -0.3649    1.5023 C   0  0  1  0  0  0  0  0  0  0  0  0
    7.8476    0.5321    0.3568 C   0  0  0  0  0  0  0  0  0  0  0  0
    1.2145   -0.8066    0.5178 C   0  0  0  0  0  0  0  0  0  0  0  0
    8.0134    0.0975    2.8145 C   0  0  0  0  0  0  0  0  0  0  0  0
    2.6364   -1.0716    0.2209 C   0  0  0  0  0  0  0  0  0  0  0  0
    4.9929   -0.8747    0.7570 C   0  0  0  0  0  0  0  0  0  0  0  0
    7.2596    1.8061    0.1201 C   0  0  0  0  0  0  0  0  0  0  0  0
    8.9371    0.1305   -0.4597 C   0  0  0  0  0  0  0  0  0  0  0  0
    3.6563   -0.5977    1.0548 C   0  0  0  0  0  0  0  0  0  0  0  0
    5.2715   -1.6461   -0.3954 C   0  0  0  0  0  0  0  0  0  0  0  0
    7.7078    2.6009   -0.9441 C   0  0  0  0  0  0  0  0  0  0  0  0
    9.3613    0.9410   -1.5172 C   0  0  0  0  0  0  0  0  0  0  0  0
    8.7440    2.1633   -1.7640 C   0  0  0  0  0  0  0  0  0  0  0  0
   -7.8033    0.0236   -1.9768 H   0  0  0  0  0  0  0  0  0  0  0  0
   -6.1817    1.7098   -1.4132 H   0  0  0  0  0  0  0  0  0  0  0  0
   -8.2614   -0.8032    0.9742 H   0  0  0  0  0  0  0  0  0  0  0  0
   -7.7317   -1.8472   -0.4000 H   0  0  0  0  0  0  0  0  0  0  0  0
   -4.9158    1.1468    0.6218 H   0  0  0  0  0  0  0  0  0  0  0  0
   -6.4006    1.1843    1.6292 H   0  0  0  0  0  0  0  0  0  0  0  0
   -8.5671    1.6856    0.3888 H   0  0  0  0  0  0  0  0  0  0  0  0
  -10.3417   -0.0084   -0.2272 H   0  0  0  0  0  0  0  0  0  0  0  0
  -10.2175    0.6027   -1.9230 H   0  0  0  0  0  0  0  0  0  0  0  0
   -9.9403   -1.1457   -1.5765 H   0  0  0  0  0  0  0  0  0  0  0  0
   -6.9066    3.5472    0.9546 H   0  0  0  0  0  0  0  0  0  0  0  0
   -7.0178    3.9875   -0.7933 H   0  0  0  0  0  0  0  0  0  0  0  0
   -5.4122    3.6071   -0.0660 H   0  0  0  0  0  0  0  0  0  0  0  0
   -4.2211   -0.3265   -1.4569 H   0  0  0  0  0  0  0  0  0  0  0  0
   -3.2848   -2.4624    2.1752 H   0  0  0  0  0  0  0  0  0  0  0  0
   -1.8270   -0.1466   -1.9618 H   0  0  0  0  0  0  0  0  0  0  0  0
   -0.8973   -2.2823    1.6663 H   0  0  0  0  0  0  0  0  0  0  0  0
    0.4954   -1.0285   -1.4846 H   0  0  0  0  0  0  0  0  0  0  0  0
    7.7004   -1.4152    1.3625 H   0  0  0  0  0  0  0  0  0  0  0  0
    9.1213    0.0636    2.7387 H   0  0  0  0  0  0  0  0  0  0  0  0
    7.6978   -0.5749    3.6403 H   0  0  0  0  0  0  0  0  0  0  0  0
    7.7012    1.1326    3.0666 H   0  0  0  0  0  0  0  0  0  0  0  0
    3.4204   -0.0050    1.9308 H   0  0  0  0  0  0  0  0  0  0  0  0
   10.1810    0.6250   -2.1493 H   0  0  0  0  0  0  0  0  0  0  0  0
    9.0844    2.7827   -2.5842 H   0  0  0  0  0  0  0  0  0  0  0  0
    6.7922   -2.5585   -1.6241 H   0  0  0  0  0  0  0  0  0  0  0  0
    6.7861   -2.5597   -1.6272 H   0  0  0  0  0  0  0  0  0  0  0  0
  1 32  1  0
  2 33  1  0
  3 36  1  0
  4 19  2  0
 26  5  1  0
  5 31  1  0
  6 28  2  0
  7 15  1  0
  7 16  1  0
  7 19  1  0
  8 13  1  0
  8 14  1  0
  8 45  1  0
  9 25  1  0
  9 28  1  0
  9 56  1  0
 10 11  2  0
 10 30  1  0
 11 35  1  0
 12 35  1  0
 12 64  1  0
 12 65  1  0
 13 15  1  0
 13 17  1  0
 13 39  1  6
 14 16  1  0
 14 18  1  0
 14 40  1  6
 15 41  1  0
 15 42  1  0
 16 43  1  0
 16 44  1  0
 17 46  1  0
 17 47  1  0
 17 48  1  0
 18 49  1  0
 18 50  1  0
 18 51  1  0
 19 20  1  0
 20 21  2  0
 20 22  1  0
 21 23  1  0
 21 52  1  0
 22 24  2  0
 22 53  1  0
 23 25  2  0
 23 54  1  0
 24 25  1  0
 24 55  1  0
 26 27  1  0
 26 29  1  0
 26 57  1  6
 27 32  2  0
 27 33  1  0
 28 30  1  0
 29 58  1  0
 29 59  1  0
 29 60  1  0
 30 34  2  0
 31 34  1  0
 31 35  2  0
 32 36  1  0
 33 37  2  0
 34 61  1  0
 36 38  2  0
 37 38  1  0
 37 62  1  0
 38 63  1  0
M  END
>  <PUBCHEM_COMPOUND_CID>  (1) 
56960363

>  <PUBCHEM_COMPOUND_CANONICALIZED>  (1) 
1

>  <PUBCHEM_CACTVS_COMPLEXITY>  (1) 
812

>  <PUBCHEM_CACTVS_HBOND_ACCEPTOR>  (1) 
8

>  <PUBCHEM_CACTVS_HBOND_DONOR>  (1) 
3

>  <PUBCHEM_CACTVS_ROTATABLE_BOND>  (1) 
6

>  <PUBCHEM_CACTVS_SUBSKEYS>  (1) 
AAADceB7sQAGAAAAAAAAAAAAAAAAAAAAAAA8eIEAAAAAAAAB0AAAHwIYAAAADD7hni4z9pPABACqAydycASSDAInZwAcmKG/btgOZrLFt5uXuSj23hnI6Ye6yaCeCAAAAACBAAAQAAAAAQIAAAAAAAAAAA==

>  <PUBCHEM_IUPAC_OPENEYE_NAME>  (1) 
6-amino-5-[(1R)-1-(2,6-dichloro-3-fluoro-phenyl)ethoxy]-N-[4-[(3S,5R)-3,5-dimethylpiperazine-1-carbonyl]phenyl]pyridazine-3-carboxamide

>  <PUBCHEM_IUPAC_CAS_NAME>  (1) 
6-amino-5-[(1R)-1-(2,6-dichloro-3-fluorophenyl)ethoxy]-N-[4-[[(3S,5R)-3,5-dimethyl-1-piperazinyl]-oxomethyl]phenyl]-3-pyridazinecarboxamide

>  <PUBCHEM_IUPAC_NAME_MARKUP>  (1) 
6-amino-5-[(1<I>R</I>)-1-(2,6-dichloro-3-fluorophenyl)ethoxy]-<I>N</I>-[4-[(3<I>S</I>,5<I>R</I>)-3,5-dimethylpiperazine-1-carbonyl]phenyl]pyridazine-3-carboxamide

>  <PUBCHEM_IUPAC_NAME>  (1) 
6-amino-5-[(1R)-1-(2,6-dichloro-3-fluorophenyl)ethoxy]-N-[4-[(3S,5R)-3,5-dimethylpiperazine-1-carbonyl]phenyl]pyridazine-3-carboxamide

>  <PUBCHEM_IUPAC_SYSTEMATIC_NAME>  (1) 
6-azanyl-5-[(1R)-1-[2,6-bis(chloranyl)-3-fluoranyl-phenyl]ethoxy]-N-[4-[(3S,5R)-3,5-dimethylpiperazin-1-yl]carbonylphenyl]pyridazine-3-carboxamide

>  <PUBCHEM_IUPAC_TRADITIONAL_NAME>  (1) 
6-amino-5-[(1R)-1-(2,6-dichloro-3-fluoro-phenyl)ethoxy]-N-[4-[(3S,5R)-3,5-dimethylpiperazine-1-carbonyl]phenyl]pyridazine-3-carboxamide

>  <PUBCHEM_IUPAC_INCHI>  (1) 
InChI=1S/C26H27Cl2FN6O3/c1-13-11-35(12-14(2)31-13)26(37)16-4-6-17(7-5-16)32-25(36)20-10-21(24(30)34-33-20)38-15(3)22-18(27)8-9-19(29)23(22)28/h4-10,13-15,31H,11-12H2,1-3H3,(H2,30,34)(H,32,36)/t13-,14+,15-/m1/s1

>  <PUBCHEM_IUPAC_INCHIKEY>  (1) 
GLYMPHUVMRFTFV-QLFBSQMISA-N

>  <PUBCHEM_XLOGP3_AA>  (1) 
3.6

>  <PUBCHEM_EXACT_MASS>  (1) 
560.1505723

>  <PUBCHEM_MOLECULAR_FORMULA>  (1) 
C26H27Cl2FN6O3

>  <PUBCHEM_MOLECULAR_WEIGHT>  (1) 
561.4

>  <PUBCHEM_SMILES>  (1) 
C[C@@H]1CN(C[C@@H](N1)C)C(=O)C2=CC=C(C=C2)NC(=O)C3=NN=C(C(=C3)O[C@H](C)C4=C(C=CC(=C4Cl)F)Cl)N

>  <PUBCHEM_OPENEYE_CAN_SMILES>  (1) 
CC1CN(CC(N1)C)C(=O)C2=CC=C(C=C2)NC(=O)C3=NN=C(C(=C3)OC(C)C4=C(C=CC(=C4Cl)F)Cl)N

>  <PUBCHEM_OPENEYE_ISO_SMILES>  (1) 
C[C@@H]1CN(C[C@@H](N1)C)C(=O)C2=CC=C(C=C2)NC(=O)C3=NN=C(C(=C3)O[C@H](C)C4=C(C=CC(=C4Cl)F)Cl)N

>  <PUBCHEM_CACTVS_TPSA>  (1) 
122

>  <PUBCHEM_MONOISOTOPIC_WEIGHT>  (1) 
560.1505723

>  <PUBCHEM_TOTAL_CHARGE>  (1) 
0

>  <PUBCHEM_HEAVY_ATOM_COUNT>  (1) 
38

>  <PUBCHEM_ATOM_DEF_STEREO_COUNT>  (1) 
3

>  <PUBCHEM_ATOM_UDEF_STEREO_COUNT>  (1) 
0

>  <PUBCHEM_BOND_DEF_STEREO_COUNT>  (1) 
0

>  <PUBCHEM_BOND_UDEF_STEREO_COUNT>  (1) 
0

>  <PUBCHEM_ISOTOPIC_ATOM_COUNT>  (1) 
0

>  <PUBCHEM_COMPONENT_COUNT>  (1) 
1

>  <PUBCHEM_CACTVS_TAUTO_COUNT>  (1) 
-1

>  <PUBCHEM_COORDINATE_TYPE>  (1) 
1
5
255

>  <PUBCHEM_BONDANNOTATIONS>  (1) 
10  11  8
10  30  8
11  35  8
13  17  6
14  18  6
20  21  8
20  22  8
21  23  8
22  24  8
23  25  8
24  25  8
27  32  8
27  33  8
30  34  8
31  34  8
31  35  8
32  36  8
33  37  8
36  38  8
37  38  8
26  5  6

$$$$
