REMARK SMILES CCc1cc2c(cc1N1CCC(N3CCOCC3)CC1)C(C)(C)c1[nH]c3cc(C#N)ccc3c1C2=O
REMARK SMILES IDX 36 1 25 2 21 3 8 4 6 5 24 6 7 7 5 8 3 9 34 10 22 11 23 12
REMARK SMILES IDX 4 13 35 14 33 15 26 16 32 17 27 18 31 19 28 20 9 22 12 23
REMARK SMILES IDX 11 24 19 25 10 26 20 27 13 28 16 29 15 30 17 31 14 32 18 33
REMARK SMILES IDX 2 34 1 35 29 36 30 37
REMARK H PARENT 25 21
ROOT
ATOM      1  O   UNL     1      -4.330  -2.670   0.248  1.00  0.00    -0.289 OA
ATOM      2  N   UNL     1      -5.160   1.808  -0.446  1.00  0.00    -0.357 N 
ATOM      3  C   UNL     1      -2.673   1.235  -0.296  1.00  0.00     0.031 C 
ATOM      4  C   UNL     1       0.441  -1.001   0.119  1.00  0.00     0.040 A 
ATOM      5  C   UNL     1      -1.800  -0.026  -0.086  1.00  0.00    -0.023 A 
ATOM      6  C   UNL     1      -4.157   0.910  -0.283  1.00  0.00     0.037 A 
ATOM      7  C   UNL     1      -0.396   0.105  -0.062  1.00  0.00     0.031 A 
ATOM      8  C   UNL     1      -2.356  -1.327   0.088  1.00  0.00     0.027 A 
ATOM      9  C   UNL     1      -0.114  -2.285   0.266  1.00  0.00    -0.024 A 
ATOM     10  C   UNL     1      -4.669  -0.358  -0.106  1.00  0.00     0.052 A 
ATOM     11  C   UNL     1      -2.339   1.869  -1.663  1.00  0.00     0.023 C 
ATOM     12  C   UNL     1      -2.399   2.248   0.836  1.00  0.00     0.023 C 
ATOM     13  C   UNL     1      -1.507  -2.433   0.265  1.00  0.00     0.018 A 
ATOM     14  C   UNL     1      -3.822  -1.527   0.087  1.00  0.00     0.195 C 
ATOM     15  C   UNL     1      -6.044  -0.236  -0.161  1.00  0.00     0.011 A 
ATOM     16  C   UNL     1      -6.301   1.097  -0.369  1.00  0.00     0.048 A 
ATOM     17  C   UNL     1      -7.071  -1.174  -0.047  1.00  0.00     0.012 A 
ATOM     18  C   UNL     1      -7.603   1.583  -0.478  1.00  0.00     0.046 A 
ATOM     19  C   UNL     1      -8.396  -0.712  -0.152  1.00  0.00     0.020 A 
ATOM     20  C   UNL     1      -8.663   0.661  -0.368  1.00  0.00     0.054 A 
ATOM     21  H   UNL     1      -5.072   2.838  -0.601  1.00  0.00     0.166 HD
ENDROOT
BRANCH   4  22
ATOM     22  N   UNL     1       1.862  -0.808   0.150  1.00  0.00    -0.371 N 
ATOM     23  C   UNL     1       4.761  -0.745   0.287  1.00  0.00     0.060 C 
ATOM     24  C   UNL     1       3.876  -0.639   1.559  1.00  0.00     0.040 C 
ATOM     25  C   UNL     1       4.010  -1.329  -0.932  1.00  0.00     0.040 C 
ATOM     26  C   UNL     1       2.454  -0.126   1.300  1.00  0.00     0.118 C 
ATOM     27  C   UNL     1       2.590  -0.788  -1.119  1.00  0.00     0.118 C 
BRANCH  23  28
ATOM     28  N   UNL     1       5.530   0.483  -0.075  1.00  0.00    -0.296 NA
ATOM     29  O   UNL     1       6.887   2.972   0.301  1.00  0.00    -0.379 OA
ATOM     30  C   UNL     1       5.694   2.905  -0.458  1.00  0.00     0.175 C 
ATOM     31  C   UNL     1       7.620   1.772   0.143  1.00  0.00     0.175 C 
ATOM     32  C   UNL     1       4.803   1.762   0.041  1.00  0.00     0.113 C 
ATOM     33  C   UNL     1       6.814   0.568   0.649  1.00  0.00     0.113 C 
ENDBRANCH  23  28
ENDBRANCH   4  22
BRANCH   9  34
ATOM     34  C   UNL     1       0.758  -3.498   0.489  1.00  0.00     0.034 C 
ATOM     35  C   UNL     1       1.012  -3.720   1.976  1.00  0.00     0.009 C 
ENDBRANCH   9  34
BRANCH  20  36
ATOM     36  C   UNL     1     -10.024   1.119  -0.475  1.00  0.00     0.099 C 
ATOM     37  N   UNL     1     -11.118   1.487  -0.561  1.00  0.00    -0.192 NA
ENDBRANCH  20  36
TORSDOF 4
