REMARK SMILES COc1cc(N2CCC(N3CCN(C)CC3)CC2)ccc1Nc1ncc(Cl)c(Nc2ccccc2P(C)(C)=O)n1
REMARK SMILES IDX 27 1 40 2 24 3 23 4 28 5 26 6 25 7 29 8 30 10 35 11 31 12
REMARK SMILES IDX 34 13 32 14 33 15 36 16 39 17 37 18 38 19 22 20 21 22 3 23
REMARK SMILES IDX 20 24 4 25 19 26 5 27 2 28 1 29 6 30 7 31 18 32 8 33 17 34
REMARK SMILES IDX 9 35 10 36 11 37 16 38 12 39 15 40 13 41 14 42
REMARK H PARENT 29 9 22 21
ROOT
ATOM      1  Cl  UNL     1       6.625  -0.336   2.986  1.00  0.00    -0.079 Cl
ATOM      2  N   UNL     1       4.478   1.079  -0.147  1.00  0.00    -0.194 NA
ATOM      3  N   UNL     1       3.155  -0.454   1.035  1.00  0.00    -0.220 NA
ATOM      4  C   UNL     1       3.275   0.466   0.044  1.00  0.00     0.229 A 
ATOM      5  C   UNL     1       5.560   0.832   0.638  1.00  0.00     0.154 A 
ATOM      6  C   UNL     1       5.405  -0.059   1.734  1.00  0.00     0.102 A 
ATOM      7  C   UNL     1       4.179  -0.717   1.881  1.00  0.00     0.139 A 
ENDROOT
BRANCH   5   8
ATOM      8  N   UNL     1       6.795   1.500   0.322  1.00  0.00    -0.338 N 
ATOM      9  H   UNL     1       6.740   2.303  -0.359  1.00  0.00     0.168 HD
BRANCH   8  10
ATOM     10  C   UNL     1       8.091   1.141   0.823  1.00  0.00     0.050 A 
ATOM     11  C   UNL     1       8.762  -0.054   0.429  1.00  0.00     0.035 A 
ATOM     12  C   UNL     1       8.720   2.021   1.710  1.00  0.00     0.027 A 
ATOM     13  C   UNL     1      10.005  -0.358   1.010  1.00  0.00     0.014 A 
ATOM     14  C   UNL     1       9.969   1.719   2.250  1.00  0.00     0.002 A 
ATOM     15  C   UNL     1      10.606   0.527   1.907  1.00  0.00     0.001 A 
BRANCH  11  16
ATOM     16  P   UNL     1       8.064  -1.212  -0.783  1.00  0.00     0.111 P 
ATOM     17  O   UNL     1       6.906  -0.602  -1.543  1.00  0.00    -0.319 OA
ATOM     18  C   UNL     1       7.479  -2.704   0.073  1.00  0.00     0.087 C 
ATOM     19  C   UNL     1       9.325  -1.696  -2.001  1.00  0.00     0.087 C 
ENDBRANCH  11  16
ENDBRANCH   8  10
ENDBRANCH   5   8
BRANCH   4  20
ATOM     20  N   UNL     1       2.177   0.787  -0.824  1.00  0.00    -0.321 N 
ATOM     21  H   UNL     1       2.416   1.395  -1.642  1.00  0.00     0.170 HD
BRANCH  20  22
ATOM     22  C   UNL     1       0.817   0.319  -0.707  1.00  0.00     0.084 A 
ATOM     23  C   UNL     1      -0.012   0.299  -1.852  1.00  0.00     0.144 A 
ATOM     24  C   UNL     1       0.253  -0.017   0.533  1.00  0.00     0.032 A 
ATOM     25  C   UNL     1      -1.345  -0.142  -1.746  1.00  0.00     0.074 A 
ATOM     26  C   UNL     1      -1.069  -0.445   0.633  1.00  0.00     0.028 A 
ATOM     27  C   UNL     1      -1.909  -0.535  -0.506  1.00  0.00     0.040 A 
BRANCH  23  28
ATOM     28  O   UNL     1       0.545   0.723  -3.077  1.00  0.00    -0.494 OA
ATOM     29  C   UNL     1      -0.184   0.976  -4.274  1.00  0.00     0.278 C 
ENDBRANCH  23  28
BRANCH  27  30
ATOM     30  N   UNL     1      -3.299  -0.992  -0.395  1.00  0.00    -0.371 N 
ATOM     31  C   UNL     1      -4.309  -0.692  -1.425  1.00  0.00     0.118 C 
ATOM     32  C   UNL     1      -3.934  -1.244   0.912  1.00  0.00     0.118 C 
ATOM     33  C   UNL     1      -4.922   0.678  -1.120  1.00  0.00     0.040 C 
ATOM     34  C   UNL     1      -4.546   0.066   1.427  1.00  0.00     0.040 C 
ATOM     35  C   UNL     1      -5.407   0.827   0.367  1.00  0.00     0.060 C 
BRANCH  35  36
ATOM     36  N   UNL     1      -6.862   0.576   0.583  1.00  0.00    -0.298 NA
ATOM     37  C   UNL     1      -7.402  -0.655  -0.021  1.00  0.00     0.100 C 
ATOM     38  C   UNL     1      -7.709   1.717   0.190  1.00  0.00     0.100 C 
ATOM     39  C   UNL     1      -8.783  -0.930   0.577  1.00  0.00     0.099 C 
ATOM     40  C   UNL     1      -9.130   1.522   0.736  1.00  0.00     0.099 C 
ATOM     41  N   UNL     1      -9.708   0.209   0.365  1.00  0.00    -0.304 NA
ATOM     42  C   UNL     1     -10.957  -0.007   1.116  1.00  0.00     0.105 C 
ENDBRANCH  35  36
ENDBRANCH  27  30
ENDBRANCH  20  22
ENDBRANCH   4  20
TORSDOF 8
