REMARK SMILES Cc1cc(Nc2ncc(Cl)c(Nc3ccccc3S(=O)(=O)C(C)C)n2)c(OC(C)C)cc1C1CCNCC1
REMARK SMILES IDX 10 1 25 2 7 3 6 4 11 5 9 6 8 7 12 8 13 10 18 11 14 12 17 13
REMARK SMILES IDX 15 14 16 15 19 16 20 17 21 18 22 19 23 20 24 21 5 22 4 24
REMARK SMILES IDX 26 25 3 26 31 27 2 28 32 29 1 30 27 31 28 32 29 33 30 34
REMARK SMILES IDX 33 35 34 36 38 37 35 38 37 39 36 40
REMARK H PARENT 12 9 5 23 36 41
ROOT
ATOM      1  Cl  UNL     1       3.505   3.346  -3.253  1.00  0.00    -0.079 Cl
ATOM      2  N   UNL     1       1.975   0.420  -0.947  1.00  0.00    -0.194 NA
ATOM      3  N   UNL     1       0.238   1.918  -1.455  1.00  0.00    -0.220 NA
ATOM      4  C   UNL     1       0.673   0.790  -0.832  1.00  0.00     0.229 A 
ATOM      5  C   UNL     1       2.869   1.155  -1.664  1.00  0.00     0.154 A 
ATOM      6  C   UNL     1       2.431   2.332  -2.298  1.00  0.00     0.102 A 
ATOM      7  C   UNL     1       1.088   2.691  -2.177  1.00  0.00     0.139 A 
ENDROOT
BRANCH   5   8
ATOM      8  N   UNL     1       4.244   0.739  -1.735  1.00  0.00    -0.338 N 
ATOM      9  H   UNL     1       4.960   1.411  -2.085  1.00  0.00     0.168 HD
BRANCH   8  10
ATOM     10  C   UNL     1       4.694  -0.539  -1.254  1.00  0.00     0.059 A 
ATOM     11  C   UNL     1       5.831  -0.642  -0.414  1.00  0.00     0.091 A 
ATOM     12  C   UNL     1       4.014  -1.705  -1.646  1.00  0.00     0.027 A 
ATOM     13  C   UNL     1       6.235  -1.912   0.035  1.00  0.00     0.022 A 
ATOM     14  C   UNL     1       4.438  -2.957  -1.200  1.00  0.00     0.002 A 
ATOM     15  C   UNL     1       5.544  -3.060  -0.359  1.00  0.00     0.001 A 
BRANCH  11  16
ATOM     16  S   UNL     1       6.686   0.818   0.128  1.00  0.00     0.182 S 
ATOM     17  O   UNL     1       5.681   1.725   0.781  1.00  0.00    -0.223 OA
ATOM     18  O   UNL     1       7.275   1.516  -1.067  1.00  0.00    -0.223 OA
BRANCH  16  19
ATOM     19  C   UNL     1       8.011   0.490   1.304  1.00  0.00     0.107 C 
ATOM     20  C   UNL     1       8.369   1.766   2.074  1.00  0.00     0.025 C 
ATOM     21  C   UNL     1       9.251  -0.055   0.586  1.00  0.00     0.025 C 
ENDBRANCH  16  19
ENDBRANCH  11  16
ENDBRANCH   8  10
ENDBRANCH   5   8
BRANCH   4  22
ATOM     22  N   UNL     1      -0.236  -0.041  -0.098  1.00  0.00    -0.321 N 
ATOM     23  H   UNL     1       0.072  -1.014   0.127  1.00  0.00     0.170 HD
BRANCH  22  24
ATOM     24  C   UNL     1      -1.576   0.351   0.243  1.00  0.00     0.084 A 
ATOM     25  C   UNL     1      -2.620  -0.577   0.131  1.00  0.00     0.143 A 
ATOM     26  C   UNL     1      -1.839   1.638   0.728  1.00  0.00     0.033 A 
ATOM     27  C   UNL     1      -3.923  -0.198   0.500  1.00  0.00     0.053 A 
ATOM     28  C   UNL     1      -3.138   2.028   1.088  1.00  0.00    -0.045 A 
ATOM     29  C   UNL     1      -4.202   1.089   1.005  1.00  0.00    -0.038 A 
ATOM     30  C   UNL     1      -3.349   3.438   1.581  1.00  0.00     0.045 C 
BRANCH  25  31
ATOM     31  O   UNL     1      -2.320  -1.856  -0.372  1.00  0.00    -0.489 OA
BRANCH  31  32
ATOM     32  C   UNL     1      -3.234  -2.945  -0.513  1.00  0.00     0.167 C 
ATOM     33  C   UNL     1      -2.619  -3.974  -1.461  1.00  0.00     0.052 C 
ATOM     34  C   UNL     1      -3.514  -3.585   0.851  1.00  0.00     0.052 C 
ENDBRANCH  31  32
ENDBRANCH  25  31
BRANCH  29  35
ATOM     35  C   UNL     1      -5.640   1.474   1.373  1.00  0.00     0.022 C 
ATOM     36  C   UNL     1      -6.426   1.931   0.127  1.00  0.00     0.023 C 
ATOM     37  C   UNL     1      -6.403   0.381   2.177  1.00  0.00     0.023 C 
ATOM     38  C   UNL     1      -6.913   0.755  -0.748  1.00  0.00     0.081 C 
ATOM     39  C   UNL     1      -7.583  -0.217   1.397  1.00  0.00     0.081 C 
ATOM     40  N   UNL     1      -7.191  -0.480   0.010  1.00  0.00    -0.317 NA
ATOM     41  H   UNL     1      -7.975  -0.989  -0.462  1.00  0.00     0.122 HD
ENDBRANCH  29  35
ENDBRANCH  22  24
ENDBRANCH   4  22
TORSDOF 9
