REMARK SMILES C[C@@H](Oc1cc(-c2cnn(C3CCNCC3)c2)cnc1N)c1c(Cl)ccc(F)c1Cl
REMARK SMILES IDX 19 1 6 2 5 3 18 4 4 5 20 6 3 7 2 8 1 9 22 10 29 11 27 12
REMARK SMILES IDX 23 13 26 14 25 15 30 16 28 17 24 18 21 19 7 22 17 23 8 24
REMARK SMILES IDX 10 25 9 26 11 27 12 28 16 29 13 30 15 31 14 32
REMARK H PARENT 21 20 21 21 14 33
ROOT
ATOM      1  N   UNL     1      -1.071   0.975   2.638  1.00  0.00    -0.235 NA
ATOM      2  C   UNL     1       0.230   0.273   0.750  1.00  0.00     0.007 A 
ATOM      3  C   UNL     1      -0.930   0.334  -0.039  1.00  0.00     0.061 A 
ATOM      4  C   UNL     1       0.125   0.602   2.111  1.00  0.00     0.122 A 
ATOM      5  C   UNL     1      -2.156   0.689   0.528  1.00  0.00     0.162 A 
ATOM      6  C   UNL     1      -2.206   1.030   1.892  1.00  0.00     0.166 A 
ENDROOT
BRANCH   5   7
ATOM      7  O   UNL     1      -3.301   0.712  -0.275  1.00  0.00    -0.482 OA
BRANCH   7   8
ATOM      8  C   UNL     1      -4.349  -0.251  -0.148  1.00  0.00     0.203 C 
ATOM      9  C   UNL     1      -3.982  -1.540  -0.888  1.00  0.00     0.058 C 
BRANCH   8  10
ATOM     10  C   UNL     1      -5.660   0.323  -0.671  1.00  0.00     0.032 A 
ATOM     11  C   UNL     1      -6.870   0.126   0.046  1.00  0.00     0.085 A 
ATOM     12  C   UNL     1      -8.070   0.666  -0.434  1.00  0.00     0.142 A 
ATOM     13  C   UNL     1      -5.711   1.033  -1.902  1.00  0.00     0.049 A 
ATOM     14  C   UNL     1      -8.093   1.384  -1.627  1.00  0.00     0.042 A 
ATOM     15  C   UNL     1      -6.923   1.560  -2.360  1.00  0.00     0.024 A 
ATOM     16  Cl  UNL     1      -6.942  -0.803   1.544  1.00  0.00    -0.081 Cl
ATOM     17  F   UNL     1      -9.227   0.489   0.254  1.00  0.00    -0.205 F 
ATOM     18  Cl  UNL     1      -4.296   1.280  -2.927  1.00  0.00    -0.084 Cl
ENDBRANCH   8  10
ENDBRANCH   7   8
ENDBRANCH   5   7
BRANCH   6  19
ATOM     19  N   UNL     1      -3.417   1.489   2.498  1.00  0.00    -0.381 N 
ATOM     20  H   UNL     1      -4.279   1.671   1.937  1.00  0.00     0.158 HD
ATOM     21  H   UNL     1      -3.437   1.711   3.518  1.00  0.00     0.158 HD
ENDBRANCH   6  19
BRANCH   2  22
ATOM     22  C   UNL     1       1.531  -0.132   0.164  1.00  0.00     0.021 A 
ATOM     23  C   UNL     1       2.790   0.050   0.704  1.00  0.00     0.117 A 
ATOM     24  C   UNL     1       1.756  -0.774  -1.045  1.00  0.00     0.143 A 
ATOM     25  N   UNL     1       3.693  -0.471  -0.146  1.00  0.00    -0.269 N 
ATOM     26  N   UNL     1       3.079  -0.965  -1.211  1.00  0.00    -0.181 NA
BRANCH  25  27
ATOM     27  C   UNL     1       5.147  -0.433   0.025  1.00  0.00     0.110 C 
ATOM     28  C   UNL     1       5.759  -1.825  -0.204  1.00  0.00     0.042 C 
ATOM     29  C   UNL     1       5.766   0.590  -0.939  1.00  0.00     0.042 C 
ATOM     30  C   UNL     1       7.289  -1.751  -0.129  1.00  0.00     0.083 C 
ATOM     31  C   UNL     1       7.296   0.563  -0.835  1.00  0.00     0.083 C 
ATOM     32  N   UNL     1       7.806  -0.788  -1.112  1.00  0.00    -0.317 NA
ATOM     33  H   UNL     1       8.848  -0.762  -1.014  1.00  0.00     0.122 HD
ENDBRANCH  25  27
ENDBRANCH   2  22
TORSDOF 6
