REMARK SMILES C[C@@H]1CN(C(=O)c2ccc(NC(=O)c3cc(O[C@H](C)c4c(Cl)ccc(F)c4Cl)c(N)nn3)cc2)C[C@H](C)N1
REMARK SMILES IDX 32 1 31 2 14 3 16 4 15 5 29 6 17 7 18 8 19 9 20 10 27 11
REMARK SMILES IDX 25 12 21 13 24 14 23 15 28 16 26 17 22 18 30 19 12 22 11 23
REMARK SMILES IDX 13 24 10 26 9 27 33 28 8 29 34 30 7 31 5 32 6 33 4 34 3 35
REMARK SMILES IDX 35 36 2 37 36 38 38 39 1 40 37 41
REMARK H PARENT 30 20 30 21 11 25 38 42
ROOT
ATOM      1  N   UNL     1       2.970  -1.801  -0.875  1.00  0.00    -0.143 NA
ATOM      2  N   UNL     1       4.239  -2.078  -1.170  1.00  0.00    -0.128 NA
ATOM      3  C   UNL     1       2.636  -1.072   0.221  1.00  0.00     0.155 A 
ATOM      4  C   UNL     1       4.993  -0.875   0.757  1.00  0.00     0.166 A 
ATOM      5  C   UNL     1       3.656  -0.598   1.055  1.00  0.00     0.086 A 
ATOM      6  C   UNL     1       5.271  -1.646  -0.395  1.00  0.00     0.188 A 
ENDROOT
BRANCH   4   7
ATOM      7  O   UNL     1       5.958  -0.356   1.645  1.00  0.00    -0.482 OA
BRANCH   7   8
ATOM      8  C   UNL     1       7.381  -0.365   1.502  1.00  0.00     0.203 C 
ATOM      9  C   UNL     1       8.013   0.098   2.814  1.00  0.00     0.058 C 
BRANCH   8  10
ATOM     10  C   UNL     1       7.848   0.532   0.357  1.00  0.00     0.032 A 
ATOM     11  C   UNL     1       7.260   1.806   0.120  1.00  0.00     0.085 A 
ATOM     12  C   UNL     1       7.708   2.601  -0.944  1.00  0.00     0.142 A 
ATOM     13  C   UNL     1       8.937   0.131  -0.460  1.00  0.00     0.049 A 
ATOM     14  C   UNL     1       8.744   2.163  -1.764  1.00  0.00     0.042 A 
ATOM     15  C   UNL     1       9.361   0.941  -1.517  1.00  0.00     0.024 A 
ATOM     16  Cl  UNL     1       5.987   2.473   1.145  1.00  0.00    -0.081 Cl
ATOM     17  F   UNL     1       7.141   3.810  -1.183  1.00  0.00    -0.205 F 
ATOM     18  Cl  UNL     1       9.825  -1.370  -0.190  1.00  0.00    -0.084 Cl
ENDBRANCH   8  10
ENDBRANCH   7   8
ENDBRANCH   4   7
BRANCH   6  19
ATOM     19  N   UNL     1       6.600  -1.996  -0.767  1.00  0.00    -0.379 N 
ATOM     20  H   UNL     1       6.792  -2.558  -1.624  1.00  0.00     0.158 HD
ATOM     21  H   UNL     1       6.786  -2.560  -1.627  1.00  0.00     0.158 HD
ENDBRANCH   6  19
BRANCH   3  22
ATOM     22  C   UNL     1       1.214  -0.807   0.518  1.00  0.00     0.276 C 
ATOM     23  N   UNL     1       0.211  -1.046  -0.480  1.00  0.00    -0.321 N 
ATOM     24  O   UNL     1       0.884  -0.328   1.639  1.00  0.00    -0.267 OA
ATOM     25  H   UNL     1       0.495  -1.028  -1.485  1.00  0.00     0.170 HD
BRANCH  23  26
ATOM     26  C   UNL     1      -1.185  -1.173  -0.173  1.00  0.00     0.041 A 
ATOM     27  C   UNL     1      -2.141  -0.650  -1.057  1.00  0.00     0.027 A 
ATOM     28  C   UNL     1      -1.615  -1.841   0.986  1.00  0.00     0.027 A 
ATOM     29  C   UNL     1      -3.504  -0.748  -0.764  1.00  0.00     0.016 A 
ATOM     30  C   UNL     1      -2.978  -1.952   1.271  1.00  0.00     0.016 A 
ATOM     31  C   UNL     1      -3.934  -1.385   0.412  1.00  0.00     0.040 A 
BRANCH  31  32
ATOM     32  C   UNL     1      -5.374  -1.468   0.740  1.00  0.00     0.253 C 
ATOM     33  O   UNL     1      -5.801  -2.441   1.421  1.00  0.00    -0.269 OA
BRANCH  32  34
ATOM     34  N   UNL     1      -6.294  -0.451   0.302  1.00  0.00    -0.336 N 
ATOM     35  C   UNL     1      -7.686  -0.819   0.023  1.00  0.00     0.138 C 
ATOM     36  C   UNL     1      -6.009   0.955   0.614  1.00  0.00     0.138 C 
ATOM     37  C   UNL     1      -8.301   0.167  -0.990  1.00  0.00     0.070 C 
ATOM     38  C   UNL     1      -6.676   1.870  -0.427  1.00  0.00     0.070 C 
ATOM     39  N   UNL     1      -8.110   1.559  -0.547  1.00  0.00    -0.308 NA
ATOM     40  C   UNL     1      -9.792  -0.115  -1.188  1.00  0.00     0.026 C 
ATOM     41  C   UNL     1      -6.492   3.342  -0.056  1.00  0.00     0.026 C 
ATOM     42  H   UNL     1      -8.567   1.686   0.389  1.00  0.00     0.123 HD
ENDBRANCH  32  34
ENDBRANCH  31  32
ENDBRANCH  23  26
ENDBRANCH   3  22
TORSDOF 8
