REMARK SMILES C[C@H]1Oc2cc(cnc2N)-c2c(nn(C)c2C#N)CN(C)C(=O)c2ccc(F)cc21
REMARK SMILES IDX 28 1 3 2 23 3 20 4 14 5 13 6 8 7 19 8 12 9 11 10 2 11 30 12
REMARK SMILES IDX 24 13 6 14 22 15 16 16 4 17 5 18 1 19 29 20 25 21 21 22 7 23
REMARK SMILES IDX 9 24 27 25 26 26 15 27 10 28 17 31 18 32
REMARK H PARENT 10 29 10 30
ROOT
ATOM      1  F   UNL     1      -4.305  -0.422   4.189  1.00  0.00    -0.207 F 
ATOM      2  O   UNL     1      -1.956   2.122   0.167  1.00  0.00    -0.482 OA
ATOM      3  O   UNL     1      -1.435  -1.668  -1.373  1.00  0.00    -0.269 OA
ATOM      4  N   UNL     1       0.292  -2.189  -0.043  1.00  0.00    -0.336 N 
ATOM      5  N   UNL     1       3.964  -1.022  -1.700  1.00  0.00    -0.257 N 
ATOM      6  N   UNL     1       3.237  -1.752  -0.857  1.00  0.00    -0.174 NA
ATOM      7  N   UNL     1       1.355   3.767   0.360  1.00  0.00    -0.235 NA
ATOM      8  C   UNL     1       1.333  -1.456   0.719  1.00  0.00     0.178 C 
ATOM      9  C   UNL     1       2.366  -0.939  -0.235  1.00  0.00     0.091 A 
ATOM     10  C   UNL     1       2.521   0.363  -0.727  1.00  0.00     0.045 A 
ATOM     11  C   UNL     1      -2.678   0.943  -0.227  1.00  0.00     0.201 C 
ATOM     12  C   UNL     1      -2.731  -0.094   0.922  1.00  0.00     0.008 A 
ATOM     13  C   UNL     1      -1.903  -1.242   0.919  1.00  0.00     0.047 A 
ATOM     14  C   UNL     1       1.681   1.527  -0.416  1.00  0.00     0.009 A 
ATOM     15  C   UNL     1      -1.012  -1.587  -0.193  1.00  0.00     0.254 C 
ATOM     16  C   UNL     1       3.588   0.271  -1.607  1.00  0.00     0.146 A 
ATOM     17  C   UNL     1      -0.566   2.332   0.052  1.00  0.00     0.162 A 
ATOM     18  C   UNL     1       0.281   1.375  -0.502  1.00  0.00     0.061 A 
ATOM     19  C   UNL     1      -4.095   1.354  -0.693  1.00  0.00     0.058 C 
ATOM     20  C   UNL     1      -3.663   0.073   1.986  1.00  0.00     0.047 A 
ATOM     21  C   UNL     1      -1.918  -2.093   2.024  1.00  0.00     0.017 A 
ATOM     22  C   UNL     1       0.483  -3.616  -0.358  1.00  0.00     0.147 C 
ATOM     23  C   UNL     1       2.205   2.785  -0.065  1.00  0.00     0.122 A 
ATOM     24  C   UNL     1      -0.008   3.563   0.441  1.00  0.00     0.166 A 
ATOM     25  C   UNL     1      -3.681  -0.805   3.062  1.00  0.00     0.123 A 
ATOM     26  C   UNL     1      -2.889  -1.941   3.045  1.00  0.00     0.040 A 
ATOM     27  C   UNL     1       4.926  -1.630  -2.645  1.00  0.00     0.175 C 
ENDROOT
BRANCH  24  28
ATOM     28  N   UNL     1      -0.855   4.627   0.905  1.00  0.00    -0.381 N 
ATOM     29  H   UNL     1      -1.905   4.608   0.727  1.00  0.00     0.158 HD
ATOM     30  H   UNL     1      -0.411   5.480   1.312  1.00  0.00     0.158 HD
ENDBRANCH  24  28
BRANCH  16  31
ATOM     31  C   UNL     1       4.208   1.339  -2.353  1.00  0.00     0.120 C 
ATOM     32  N   UNL     1       4.710   2.211  -2.918  1.00  0.00    -0.191 NA
ENDBRANCH  16  31
TORSDOF 2
