REMARK SMILES CN1CCN(c2ccc(C(=O)Nc3n[nH]c4ccc(Cc5cc(F)cc(F)c5)cc34)c(NC3CCOCC3)c2)CC1
REMARK SMILES IDX 17 1 16 2 15 3 14 4 13 5 30 6 29 7 19 8 18 9 20 11 21 12
REMARK SMILES IDX 22 13 28 14 23 15 26 16 25 17 24 18 27 19 12 20 10 21 11 23
REMARK SMILES IDX 9 24 8 25 31 26 7 27 39 28 6 29 32 30 33 32 34 33 38 34
REMARK SMILES IDX 35 35 37 36 36 37 5 38 4 39 40 40 3 41 41 42 2 43 1 44
REMARK H PARENT 15 10 12 22 32 31
ROOT
ATOM      1  C   UNL     1       5.796   2.609  -0.014  1.00  0.00     0.029 A 
ATOM      2  C   UNL     1       4.440   2.880   0.137  1.00  0.00     0.067 A 
ATOM      3  N   UNL     1       3.760   3.978  -0.234  1.00  0.00    -0.276 N 
ATOM      4  N   UNL     1       2.470   3.789   0.031  1.00  0.00    -0.156 NA
ATOM      5  C   UNL     1       2.339   2.561   0.584  1.00  0.00     0.162 A 
ATOM      6  C   UNL     1       3.576   1.961   0.660  1.00  0.00     0.044 A 
ATOM      7  C   UNL     1       3.993   0.695   1.064  1.00  0.00     0.018 A 
ATOM      8  C   UNL     1       5.364   0.383   0.937  1.00  0.00    -0.043 A 
ATOM      9  C   UNL     1       6.260   1.344   0.393  1.00  0.00     0.006 A 
ATOM     10  H   UNL     1       4.149   4.835  -0.681  1.00  0.00     0.190 HD
ENDROOT
BRANCH   8  11
ATOM     11  C   UNL     1       5.852  -0.997   1.288  1.00  0.00     0.071 C 
BRANCH  11  12
ATOM     12  C   UNL     1       5.709  -1.910   0.100  1.00  0.00    -0.038 A 
ATOM     13  C   UNL     1       4.507  -2.603  -0.124  1.00  0.00     0.043 A 
ATOM     14  C   UNL     1       6.752  -2.026  -0.833  1.00  0.00     0.043 A 
ATOM     15  C   UNL     1       4.362  -3.417  -1.253  1.00  0.00     0.126 A 
ATOM     16  C   UNL     1       6.601  -2.836  -1.963  1.00  0.00     0.126 A 
ATOM     17  C   UNL     1       5.407  -3.531  -2.173  1.00  0.00     0.078 A 
ATOM     18  F   UNL     1       3.204  -4.095  -1.457  1.00  0.00    -0.207 F 
ATOM     19  F   UNL     1       7.615  -2.947  -2.856  1.00  0.00    -0.207 F 
ENDBRANCH  11  12
ENDBRANCH   8  11
BRANCH   5  20
ATOM     20  N   UNL     1       1.094   1.959   0.962  1.00  0.00    -0.304 N 
ATOM     21  C   UNL     1      -0.172   2.371   0.425  1.00  0.00     0.258 C 
ATOM     22  H   UNL     1       1.124   1.079   1.526  1.00  0.00     0.171 HD
ATOM     23  O   UNL     1      -0.271   3.432  -0.252  1.00  0.00    -0.269 OA
BRANCH  21  24
ATOM     24  C   UNL     1      -1.355   1.519   0.607  1.00  0.00     0.063 A 
ATOM     25  C   UNL     1      -1.786   1.243   1.913  1.00  0.00     0.018 A 
ATOM     26  C   UNL     1      -2.095   1.023  -0.494  1.00  0.00     0.049 A 
ATOM     27  C   UNL     1      -2.969   0.537   2.136  1.00  0.00     0.027 A 
ATOM     28  C   UNL     1      -3.296   0.337  -0.254  1.00  0.00     0.052 A 
ATOM     29  C   UNL     1      -3.740   0.090   1.056  1.00  0.00     0.039 A 
BRANCH  26  30
ATOM     30  N   UNL     1      -1.655   1.171  -1.860  1.00  0.00    -0.381 N 
ATOM     31  H   UNL     1      -2.406   1.271  -2.582  1.00  0.00     0.160 HD
BRANCH  30  32
ATOM     32  C   UNL     1      -0.289   0.861  -2.318  1.00  0.00     0.083 C 
ATOM     33  C   UNL     1       0.176  -0.510  -1.797  1.00  0.00     0.053 C 
ATOM     34  C   UNL     1      -0.215   0.882  -3.854  1.00  0.00     0.053 C 
ATOM     35  C   UNL     1       1.521  -0.888  -2.432  1.00  0.00     0.162 C 
ATOM     36  C   UNL     1       1.163   0.400  -4.325  1.00  0.00     0.162 C 
ATOM     37  O   UNL     1       1.430  -0.902  -3.845  1.00  0.00    -0.381 OA
ENDBRANCH  30  32
ENDBRANCH  26  30
BRANCH  29  38
ATOM     38  N   UNL     1      -4.988  -0.590   1.283  1.00  0.00    -0.369 N 
ATOM     39  C   UNL     1      -6.213  -0.162   0.604  1.00  0.00     0.132 C 
ATOM     40  C   UNL     1      -5.102  -1.689   2.246  1.00  0.00     0.132 C 
ATOM     41  C   UNL     1      -7.295   0.118   1.651  1.00  0.00     0.105 C 
ATOM     42  C   UNL     1      -6.210  -1.362   3.250  1.00  0.00     0.105 C 
ATOM     43  N   UNL     1      -7.469  -1.050   2.538  1.00  0.00    -0.303 NA
ATOM     44  C   UNL     1      -8.540  -0.786   3.511  1.00  0.00     0.105 C 
ENDBRANCH  29  38
ENDBRANCH  21  24
ENDBRANCH   5  20
TORSDOF 7
